
  SciTegic          2D

 22 25  0  0  0  0            999 V2000
   -2.6462   -0.6979    0.0000 F   0  0
   -1.8212   -0.6979    0.0000 C   0  0
   -1.4087    0.0165    0.0000 C   0  0
   -0.5837    0.0165    0.0000 C   0  0
   -0.1712   -0.6979    0.0000 C   0  0
   -0.5837   -1.4124    0.0000 C   0  0
   -1.4087   -1.4124    0.0000 C   0  0
    0.6538   -0.6979    0.0000 C   0  0
    1.1387   -0.0305    0.0000 N   0  0
    1.9233   -0.2854    0.0000 N   0  0
    2.6378    0.1271    0.0000 C   0  0
    3.3523   -0.2854    0.0000 C   0  0
    3.3523   -1.1104    0.0000 C   0  0
    2.6378   -1.5229    0.0000 C   0  0
    1.9233   -1.1104    0.0000 C   0  0
    1.1387   -1.3654    0.0000 C   0  0
    0.8838   -2.1500    0.0000 C   0  0
    1.4358   -2.7631    0.0000 C   0  0
    1.1809   -3.5477    0.0000 C   0  0
    0.3739   -3.7192    0.0000 N   0  0
   -0.1781   -3.1062    0.0000 C   0  0
    0.0768   -2.3215    0.0000 C   0  0
  1  2  1  0
  2  3  2  0
  3  4  1  0
  4  5  2  0
  5  6  1  0
  6  7  2  0
  2  7  1  0
  5  8  1  0
  8  9  2  0
  9 10  1  0
 10 11  1  0
 11 12  2  0
 12 13  1  0
 13 14  2  0
 14 15  1  0
 10 15  1  0
 15 16  2  0
  8 16  1  0
 16 17  1  0
 17 18  2  0
 18 19  1  0
 19 20  2  0
 20 21  1  0
 21 22  2  0
 17 22  1  0
M  END