
  SciTegic07101214422D

 78 86  0  0  0  0            999 V2000
   18.2548  -11.8993    0.0000 B   0  5
   17.5302  -11.5047    0.0000 F   0  0
   17.5508  -12.3295    0.0000 F   0  0
   19.1303  -13.8595    0.0000 C   0  0
   19.7842  -13.3565    0.0000 C   0  0
   18.4498  -13.3891    0.0000 C   0  0
   18.6854  -12.5985    0.0000 N   0  3
   19.5086  -12.5791    0.0000 C   0  0
   19.9012  -11.8605    0.0000 C   0  0
   18.6518  -11.1760    0.0000 N   0  0
   19.4722  -11.1535    0.0000 C   0  0
   19.7044  -10.3664    0.0000 C   0  0
   19.0275   -9.9022    0.0000 C   0  0
   18.3771  -10.4027    0.0000 C   0  0
   17.5858  -10.1693    0.0000 C   0  0
   17.3089   -9.3934    0.0000 S   0  0
   16.4842   -9.4160    0.0000 C   0  0
   16.2508  -10.2073    0.0000 C   0  0
   16.9313  -10.6737    0.0000 C   0  0
   -4.3848  -17.6250    0.0000 C   0  0
   -4.3859  -18.4523    0.0000 C   0  0
   -3.6711  -18.8652    0.0000 C   0  0
   -2.9547  -18.4519    0.0000 C   0  0
   -3.6729  -17.2122    0.0000 C   0  0
   -2.9612  -17.6231    0.0000 C   0  0
   -2.9689  -15.9817    0.0000 C   0  0
   -3.6756  -16.3949    0.0000 N   0  0
   -2.2525  -16.3907    0.0000 C   0  0
   -2.2473  -17.2140    0.0000 N   0  0
   -1.4627  -17.4635    0.0000 C   0  0
   -0.9829  -16.7944    0.0000 N   0  0
   -1.4711  -16.1314    0.0000 N   0  0
   -1.2029  -18.2465    0.0000 O   0  0
   -2.9732  -15.1567    0.0000 N   0  0
   -2.2609  -14.7405    0.0000 C   0  0
   -2.2651  -13.9155    0.0000 O   0  0
   -1.5443  -15.1493    0.0000 C   0  0
   -0.1603  -16.7886    0.0000 C   0  0
    0.2561  -17.5021    0.0000 C   0  0
    1.0803  -17.4972    0.0000 C   0  0
    1.4891  -16.7796    0.0000 C   0  0
    1.0676  -16.0654    0.0000 C   0  0
    0.2448  -16.0738    0.0000 C   0  0
    2.3141  -16.7732    0.0000 O   0  0
    2.7320  -17.4845    0.0000 C   0  0
   -0.8319  -14.7331    0.0000 C   0  0
   -0.1153  -15.1420    0.0000 C   0  0
    0.5970  -14.7258    0.0000 N   0  0
   -0.1111  -15.9669    0.0000 O   0  0
    1.3136  -15.1346    0.0000 C   0  0
    2.0259  -14.7184    0.0000 C   0  0
    2.7425  -15.1272    0.0000 O   0  0
    3.4548  -14.7110    0.0000 C   0  0
    4.1714  -15.1198    0.0000 C   0  0
    4.8838  -14.7036    0.0000 O   0  0
    5.6003  -15.1125    0.0000 C   0  0
    6.3127  -14.6963    0.0000 C   0  0
    7.0293  -15.1051    0.0000 N   0  0
    7.7416  -14.6889    0.0000 C   0  0
    7.7373  -13.8639    0.0000 O   0  0
    8.4582  -15.0977    0.0000 C   0  0
    9.1705  -14.6815    0.0000 C   0  0
    9.8871  -15.0903    0.0000 C   0  0
   10.5994  -14.6741    0.0000 C   0  0
   11.3160  -15.0830    0.0000 C   0  0
   12.0284  -14.6668    0.0000 N   0  0
   12.7450  -15.0756    0.0000 C   0  0
   13.4573  -14.6594    0.0000 C   0  0
   14.1739  -15.0682    0.0000 O   0  0
   12.7492  -15.9006    0.0000 O   0  0
   14.8862  -14.6520    0.0000 C   0  0
   15.6013  -15.0617    0.0000 C   0  0
   16.3131  -14.6462    0.0000 C   0  0
   16.3093  -13.8203    0.0000 C   0  0
   15.5877  -13.4117    0.0000 C   0  0
   14.8788  -13.8295    0.0000 C   0  0
   17.0211  -13.4032    0.0000 C   0  0
   17.7382  -13.8110    0.0000 C   0  0
  7  1  1  0
 35 37  1  0
  8  9  2  0
 16 17  1  0
 38 39  2  0
 17 18  2  0
 39 40  1  0
 18 19  1  0
 40 41  2  0
 19 15  2  0
 41 42  1  0
  9 11  1  0
 42 43  2  0
 43 38  1  0
 31 38  1  0
 10  1  1  0
 41 44  1  0
 20 21  2  0
 44 45  1  0
 10 11  1  0
 37 46  1  0
 21 22  1  0
 46 47  1  0
  1  3  1  0
 47 48  1  0
 22 23  2  0
 47 49  2  0
 23 25  1  0
 48 50  1  0
 24 20  1  0
 50 51  1  0
  5  8  1  0
 51 52  1  0
  7  6  2  0
 52 53  1  0
 24 25  2  0
 53 54  1  0
 25 29  1  0
 54 55  1  0
  6  4  1  0
 55 56  1  0
 28 26  1  0
 56 57  1  0
  7  8  1  0
 57 58  1  0
 26 27  2  0
 58 59  1  0
 27 24  1  0
 59 60  2  0
 28 29  1  0
 59 61  1  0
 11 12  2  0
 61 62  1  0
 12 13  1  0
 62 63  1  0
 13 14  2  0
 63 64  1  0
 14 10  1  0
 64 65  1  0
 65 66  1  0
 29 30  1  0
 66 67  1  0
 30 31  1  0
 67 68  1  0
 31 32  1  0
 68 69  1  0
 32 28  2  0
 67 70  2  0
 14 15  1  0
 69 71  1  0
 30 33  2  0
 71 72  2  0
 15 16  1  0
 72 73  1  0
 26 34  1  0
 73 74  2  0
  4  5  2  0
 74 75  1  0
 34 35  1  0
 75 76  2  0
 76 71  1  0
  2  1  1  0
 74 77  1  0
 35 36  2  0
 77 78  2  0
 78  6  1  0
M  CHG  2   1  -1   7   1
M  END