
  SciTegic11201309402D

 87 92  0  0  1  0            999 V2000
   10.9542   -4.5261    0.0000 N   0  0
   10.9198   -6.7433    0.0000 N   0  0
   10.6276   -5.9698    0.0000 C   0  0
   11.1605   -5.3339    0.0000 C   0  0  2  0  0  0
    4.9386   -0.6245    0.0000 N   0  0
    4.8183   -1.4495    0.0000 C   0  0
   10.1808   -4.2167    0.0000 C   0  0
   11.7276   -6.9495    0.0000 C   0  0  2  0  0  0
   12.5183   -6.7433    0.0000 C   0  0
    5.0589   -2.2401    0.0000 C   0  0  1  0  0  0
   10.0605   -3.4089    0.0000 C   0  0  1  0  0  0
    8.3933   -1.9823    0.0000 C   0  0  1  0  0  0
    9.1667   -2.2917    0.0000 C   0  0
    8.5136   -1.1745    0.0000 N   0  0
   10.4730   -7.4308    0.0000 C   0  0
   11.5386   -3.9417    0.0000 C   0  0
    4.3370   -2.6526    0.0000 N   0  0
    5.4026    0.0630    0.0000 C   0  0  2  0  0  0
    9.2870   -3.0995    0.0000 N   0  0
    6.1245    0.4755    0.0000 C   0  0
    4.2511   -3.5464    0.0000 C   0  0
   13.0969   -7.3105    0.0000 N   0  0
    2.8073   -5.2136    0.0000 C   0  0
   11.9511   -5.5401    0.0000 C   0  0
    6.9495    0.5270    0.0000 N   0  0
    3.5292   -4.8011    0.0000 N   0  0
   11.7620   -7.7917    0.0000 C   0  0
   10.9886   -8.0839    0.0000 C   0  0
    1.3808   -1.0542    0.0000 C   0  0
    6.3995   -6.4339    0.0000 C   0  0
   16.0875   -4.2855    0.0000 C   0  0
    8.2730   -0.3839    0.0000 C   0  0
   14.4605   -7.6714    0.0000 C   0  0
   12.3292   -4.1651    0.0000 C   0  0
   12.5526   -4.9558    0.0000 C   0  0
    3.5292   -3.9761    0.0000 C   0  0  1  0  0  0
    6.3823   -3.1339    0.0000 S   0  0
    7.2073   -3.0823    0.0000 S   0  0
   13.8875   -7.0984    0.0000 C   0  0  2  0  0  0
    9.8198   -5.8323    0.0000 O   0  0
   12.7245   -5.9355    0.0000 O   0  0
    3.9933   -1.5011    0.0000 O   0  0
    7.1214   -6.0386    0.0000 N   0  0
    1.3808   -0.2464    0.0000 N   0  0
   15.5089   -3.7183    0.0000 N   0  0
    9.5276   -4.7323    0.0000 O   0  0
    5.6089   -2.8417    0.0000 C   0  0
    9.8026   -1.7761    0.0000 O   0  0
    4.9730   -3.9761    0.0000 O   0  0
    2.1026   -4.8011    0.0000 O   0  0
    5.8667    1.2661    0.0000 O   0  0
    7.9292   -2.6698    0.0000 C   0  0
    7.7058    0.2348    0.0000 C   0  0
   15.2511   -7.4594    0.0000 O   0  0
    8.9948    0.0458    0.0000 O   0  0
    2.8073   -6.0386    0.0000 C   0  0  2  0  0  0
    5.6776   -6.0386    0.0000 N   0  0
    2.1026   -1.4839    0.0000 N   0  0
   15.8812   -5.0875    0.0000 N   0  0
   16.8781   -4.0792    0.0000 N   0  0
    0.6761   -1.4839    0.0000 N   0  0
    6.3995   -7.2761    0.0000 N   0  0
    4.1480   -0.4011    0.0000 C   0  0
   14.2542   -8.4620    0.0000 O   0  0
   10.6964   -2.8933    0.0000 C   0  0
    2.1026   -6.4339    0.0000 N   0  0
    4.9042    0.7161    0.0000 C   0  0
   12.3980   -8.3073    0.0000 C   0  0
   11.4698   -3.1855    0.0000 O   0  0
    4.1136    0.4239    0.0000 C   0  0
   10.8511   -8.8917    0.0000 C   0  0
   12.9308   -3.5808    0.0000 C   0  0
   13.3433   -5.1792    0.0000 C   0  0
    2.8073   -3.5464    0.0000 C   0  0
   14.0937   -6.3078    0.0000 C   0  0
    4.9730   -6.4339    0.0000 C   0  0
    2.1026   -2.3089    0.0000 C   0  0
   15.0906   -5.2995    0.0000 C   0  0
    3.5292   -6.4339    0.0000 C   0  0
   14.8844   -6.0901    0.0000 C   0  0
    2.8073   -2.7214    0.0000 C   0  0
    4.2511   -6.0386    0.0000 C   0  0
   12.2605   -9.1323    0.0000 C   0  0
   11.4870   -9.4245    0.0000 C   0  0
   13.7214   -3.8042    0.0000 C   0  0
   13.9276   -4.5948    0.0000 C   0  0
    5.6012    1.0431    0.0000 H   0  0
  2  3  1  0
  4  3  1  1
  4  1  1  0
  5  6  1  0
  6 10  1  0
  7  1  1  0
  8  2  1  0
  8  9  1  6
 10 47  1  0
 11  7  1  0
 12 13  1  6
 13 19  1  0
 14 12  1  0
 15  2  1  0
 16  1  1  0
 10 17  1  6
 18 20  1  0
 11 19  1  1
 20 25  1  0
 21 17  1  0
 22  9  1  0
 23 26  1  0
  4 24  1  0
 25 53  1  0
 36 26  1  1
  8 27  1  0
 28 15  1  0
 29 58  2  0
 30 57  2  0
 31 59  2  0
 32 14  1  0
 33 39  1  0
 34 16  1  0
 35 34  1  0
 36 21  1  0
 37 38  1  0
 38 52  1  0
 39 22  1  1
 40  3  2  0
 41  9  2  0
 42  6  2  0
 43 30  1  0
 44 29  1  0
 45 31  1  0
 46  7  2  0
 47 37  1  0
 48 13  2  0
 49 21  2  0
 50 23  2  0
 51 20  2  0
 12 52  1  0
 53 32  1  0
 54 33  2  0
 55 32  2  0
 56 23  1  0
 57 76  1  0
 58 77  1  0
 59 78  1  0
 60 31  1  0
 61 29  1  0
 62 30  1  0
 63  5  1  0
 64 33  1  0
 11 65  1  0
 56 66  1  1
 18 67  1  0
 68 27  1  0
 69 65  1  0
 70 67  1  0
 71 28  1  0
 72 34  2  0
 73 35  2  0
 36 74  1  0
 39 75  1  0
 76 82  1  0
 77 81  1  0
 78 80  1  0
 56 79  1  0
 80 75  1  0
 81 74  1  0
 82 79  1  0
 83 68  1  0
 84 71  1  0
 85 72  1  0
 86 85  2  0
 35 24  1  0
 73 86  1  0
 28 27  1  0
 83 84  1  0
  5 18  1  0
 63 70  1  0
 18 87  1  6
M  END