
  SciTegic01161211242D

 21 21  0  0  0  0            999 V2000
    9.8175  -16.5275    0.0000 O   0  0
    9.8175  -17.3571    0.0000 B   0  0
   10.5319  -17.7696    0.0000 O   0  0
   10.5319  -16.1103    0.0000 C   0  0
   11.2510  -16.5275    0.0000 C   0  0
   11.2493  -17.3552    0.0000 C   0  0
   11.9642  -17.7687    0.0000 C   0  0
   12.6813  -17.3555    0.0000 C   0  0
   12.6789  -16.5246    0.0000 C   0  0
   11.9633  -16.1150    0.0000 C   0  0
   13.3920  -16.1099    0.0000 C   0  0  2  0  0  0
   14.1078  -16.5201    0.0000 C   0  0
   14.8209  -16.1053    0.0000 N   0  0
   15.6428  -16.1012    0.0000 C   0  0
   16.4678  -16.1012    0.0000 C   0  0
   15.6409  -15.2762    0.0000 C   0  0
   15.6418  -16.9262    0.0000 C   0  0
   13.9700  -15.5191    0.0000 O   0  0
   12.8012  -15.5191    0.0000 H   0  0
    9.0200  -17.1416    0.0000 O   0  0
    9.4004  -18.0674    0.0000 O   0  0
  1  4  1  0
  9 11  1  0
  5  6  2  0
 11 12  1  0
  2  3  1  0
 12 13  1  0
  6  7  1  0
 13 14  1  0
  3  6  1  0
 14 15  1  0
  7  8  2  0
 14 16  1  0
  5  4  1  0
 14 17  1  0
  8  9  1  0
 11 18  1  6
 11 19  1  1
  9 10  2  0
  2 20  1  0
 10  5  1  0
  2 21  1  0
M  END