
  SciTegic12231509382D

 27 29  0  0  0  0            999 V2000
   -4.3902    1.9741    0.0000 C   0  0
   -5.1047    1.5616    0.0000 C   0  0
   -5.1047    0.7366    0.0000 C   0  0
   -4.3902    0.3241    0.0000 C   0  0
   -3.6757    0.7366    0.0000 C   0  0
   -3.6757    1.5616    0.0000 C   0  0
   -5.8893    0.4817    0.0000 N   0  0
   -6.3742    1.1491    0.0000 C   0  0
   -5.8893    1.8165    0.0000 N   0  0
   -2.9612    1.9741    0.0000 N   0  0
   -2.9612    2.7991    0.0000 C   0  0
   -2.2467    3.2116    0.0000 C   0  0
   -2.2467    4.0366    0.0000 C   0  0
   -2.9612    4.4491    0.0000 C   0  0
   -3.6757    4.0366    0.0000 C   0  0
   -3.6757    3.2116    0.0000 C   0  0
   -1.5322    2.7991    0.0000 Cl  0  0
   -2.9612    5.2741    0.0000 Br  0  0
   -2.9612    0.3241    0.0000 C   0  0
   -2.2467    0.7366    0.0000 N   0  0
   -2.9612   -0.5009    0.0000 O   0  0
   -1.5323    0.3241    0.0000 O   0  0
   -0.8178    0.7366    0.0000 C   0  0
   -0.1033    0.3241    0.0000 C   0  0
    0.6111    0.7366    0.0000 O   0  0
   -4.3902    2.7991    0.0000 F   0  0
   -6.1442   -0.3030    0.0000 C   0  0
  1  2  1  0
  1  6  2  0
  3  4  1  0
  4  5  2  0
  5  6  1  0
  2  9  1  0
  2  3  2  0
  3  7  1  0
  7  8  1  0
  8  9  2  0
  6 10  1  0
 10 11  1  0
 11 12  1  0
 11 16  2  0
 12 13  2  0
 13 14  1  0
 14 15  2  0
 15 16  1  0
 12 17  1  0
 14 18  1  0
  5 19  1  0
 19 20  1  0
 19 21  2  0
 20 22  1  0
 22 23  1  0
 23 24  1  0
 24 25  1  0
  1 26  1  0
  7 27  1  0
M  END