
  SciTegic01091215432D

 57 62  0  0  0  0            999 V2000
    0.7258   -3.4047    0.0000 C   0  0
    0.7266   -4.2315    0.0000 C   0  0
    1.4419   -4.6425    0.0000 C   0  0
    2.1569   -4.2277    0.0000 C   0  0
    2.1521   -3.3977    0.0000 C   0  0
    1.4362   -2.9905    0.0000 C   0  0
    1.4319   -2.1655    0.0000 O   0  0
    2.1441   -1.7492    0.0000 C   0  0
    2.8608   -2.1579    0.0000 C   0  0  2  0  0  0
    3.5731   -1.7417    0.0000 C   0  0
    2.8652   -2.9829    0.0000 O   0  0
    4.2897   -2.1504    0.0000 N   0  0
    5.0020   -1.7341    0.0000 C   0  0
    5.7186   -2.1428    0.0000 C   0  0
    6.4309   -1.7265    0.0000 N   0  0
    7.1476   -2.1352    0.0000 C   0  0
    7.8598   -1.7189    0.0000 C   0  0
    7.1519   -2.9602    0.0000 O   0  0
    8.5765   -2.1276    0.0000 C   0  0
    8.5809   -2.9526    0.0000 C   0  0
    9.2975   -3.3613    0.0000 C   0  0
    9.3019   -4.1863    0.0000 C   0  0
    8.5896   -4.6026    0.0000 N   0  0
    8.5940   -5.4276    0.0000 C   0  0
    7.8817   -5.8439    0.0000 O   0  0
    9.3106   -5.8363    0.0000 C   0  0
    9.3150   -6.6613    0.0000 O   0  0
   10.0317   -7.0700    0.0000 C   0  0
   10.0308   -7.8928    0.0000 C   0  0
   10.7466   -8.3014    0.0000 C   0  0
   11.4598   -7.8851    0.0000 C   0  0
   11.4528   -7.0558    0.0000 C   0  0
   10.7364   -6.6509    0.0000 C   0  0
   12.1770   -8.2928    0.0000 C   0  0
   12.8887   -7.8756    0.0000 C   0  0
   13.5710   -8.3394    0.0000 C   0  0
   13.6015   -9.1619    0.0000 C   0  0
   14.3937   -9.3920    0.0000 C   0  0
   14.3517   -8.0578    0.0000 N   0  0
   14.8538   -8.7107    0.0000 C   0  0
   15.6656   -8.6029    0.0000 C   0  0
   14.6616   -7.2972    0.0000 B   0  5
   14.6542   -6.4708    0.0000 F   0  0
   15.4798   -7.1903    0.0000 N   0  3
   15.9813   -7.8398    0.0000 C   0  0
   16.7540   -7.5636    0.0000 C   0  0
   16.7301   -6.7433    0.0000 C   0  0
   15.9426   -6.5127    0.0000 C   0  0
   15.6649   -5.7359    0.0000 C   0  0
   16.1263   -5.0552    0.0000 C   0  0
   15.6221   -4.4022    0.0000 C   0  0
   14.8452   -4.6800    0.0000 C   0  0
   14.8694   -5.5046    0.0000 S   0  0
   13.9417   -6.8833    0.0000 F   0  0
    0.0103   -2.9940    0.0000 C   0  0
   -0.7031   -3.4083    0.0000 C   0  0
   -1.4187   -2.9976    0.0000 C   0  0
 13 14  1  0
 28 29  2  0
  6  7  1  0
 29 30  1  0
 14 15  1  0
 30 31  2  0
  3  4  2  0
 31 32  1  0
 15 16  1  0
 32 33  2  0
 33 28  1  0
  7  8  1  0
 31 34  1  0
 16 17  1  0
 34 35  2  0
 35 36  1  0
 36 37  2  0
 16 18  2  0
  8  9  1  0
 37 38  1  0
 38 40  2  0
 39 36  1  0
 39 40  1  0
 17 19  1  0
  4  5  1  0
 19 20  1  0
  9 10  1  0
 39 42  1  0
 40 41  1  0
 41 45  2  0
 44 42  1  0
 20 21  1  0
 42 43  1  0
 44 45  1  0
  2  3  1  0
 21 22  1  0
  9 11  1  6
 22 23  1  0
  5  6  2  0
 45 46  1  0
 46 47  2  0
 47 48  1  0
 48 44  2  0
 23 24  1  0
 48 49  1  0
 49 50  2  0
 10 12  1  0
 24 25  2  0
  6  1  1  0
 24 26  1  0
 50 51  1  0
 51 52  2  0
 52 53  1  0
 53 49  1  0
 12 13  1  0
 42 54  1  0
 26 27  1  0
  1 55  1  0
  1  2  2  0
 55 56  1  0
 27 28  1  0
 56 57  2  0
M  CHG  2  42  -1  44   1
M  END