
  SciTegic12091219312D

 36 39  0  0  1  0            999 V2000
    4.6417   -2.6125    0.0000 C   0  0  1  0  0  0
    5.9208   -1.3208    0.0000 P   0  0
    4.6417   -3.3167    0.0000 C   0  0  2  0  0  0
    4.0125   -3.6750    0.0000 C   0  0  1  0  0  0
    0.2917   -4.4125    0.0000 C   0  0
    3.4042   -3.3167    0.0000 C   0  0  1  0  0  0
    2.7667   -3.6750    0.0000 C   0  0
    5.3167   -2.3875    0.0000 C   0  0  1  0  0  0
    2.7667   -4.3833    0.0000 C   0  0
    5.3125   -1.6792    0.0000 O   0  0
    4.0125   -2.2500    0.0000 C   0  0
    3.4042   -2.6125    0.0000 C   0  0
    0.9292   -4.7417    0.0000 O   0  0
    5.3167   -3.5292    0.0000 C   0  0
    4.0125   -4.4000    0.0000 C   0  0
    2.1542   -3.3167    0.0000 C   0  0
   -0.3083   -4.7417    0.0000 N   0  0
    6.5375   -1.6708    0.0000 O   0  0
    6.2667   -0.7042    0.0000 O   0  0
    5.5625   -0.7042    0.0000 O   0  0
    0.2792   -3.6417    0.0000 O   0  0
    2.1542   -4.7417    0.0000 C   0  0
    1.5375   -4.3833    0.0000 C   0  0
    3.4042   -4.7417    0.0000 C   0  0
    5.7167   -2.9542    0.0000 C   0  0
    1.5375   -3.6667    0.0000 C   0  0
    4.6417   -1.9000    0.0000 C   0  0
   -1.4875   -5.4542    0.0000 Cl  0  0
   -2.1458   -4.4417    0.0000 Cl  0  0
   -0.2958   -5.4667    0.0000 C   0  0
   -0.9333   -4.4125    0.0000 C   0  0
   -0.8750   -5.8167    0.0000 C   0  0
   -1.5333   -4.7625    0.0000 C   0  0
    3.4167   -4.0292    0.0000 H   0  0
    4.6417   -4.0000    0.0000 H   0  0
    4.0042   -2.9542    0.0000 H   0  0
  2 10  1  0
  3  1  1  0
  4  3  1  0
  5 13  1  0
  6  4  1  0
  7  6  1  0
  8  1  1  0
  9  7  2  0
  8 10  1  1
 11  1  1  0
 12 11  1  0
 13 23  1  0
 14  3  1  0
 15  4  1  0
 16  7  1  0
 17  5  1  0
 18  2  1  0
 19  2  1  0
 20  2  2  0
 21  5  2  0
 22  9  1  0
 23 26  1  0
 24 15  1  0
 25  8  1  0
 26 16  2  0
  1 27  1  1
 28 32  1  0
 29 33  1  0
 30 17  1  0
 31 17  1  0
 32 30  1  0
 33 31  1  0
  6 34  1  6
  3 35  1  6
  4 36  1  1
 12  6  1  0
 14 25  1  0
 24  9  1  0
 22 23  2  0
M  END