
  SciTegic10131509462D

 63 65  0  0  0  0            999 V2000
    1.0016    0.0177    0.0000 C   0  0  2  0  0  0
    1.8410   -0.2327    0.0000 C   0  0  2  0  0  0
    2.7093   -0.0728    0.0000 C   0  0  2  0  0  0
    3.1379   -0.7778    0.0000 C   0  0  1  0  0  0
    3.9627   -0.7591    0.0000 C   0  0  1  0  0  0
    4.3589   -0.0354    0.0000 C   0  0
    3.9303    0.6695    0.0000 C   0  0  1  0  0  0
    3.1055    0.6508    0.0000 C   0  0  1  0  0  0
    2.3935    0.7841    0.0000 C   0  0
    1.4451    0.8351    0.0000 C   0  0  1  0  0  0
    0.8282    0.4936    0.0000 C   0  0
   -0.0655    0.6853    0.0000 C   0  0
   -0.5304    0.1749    0.0000 C   0  0  2  0  0  0
    0.2816   -0.2665    0.0000 C   0  0
    1.0137    1.2144    0.0000 C   0  0
    1.1837    2.0217    0.0000 C   0  0
    0.5658    1.9072    0.0000 C   0  0
   -0.3175    1.4708    0.0000 C   0  0
    3.1724    1.4731    0.0000 C   0  0
    3.1566   -1.6026    0.0000 C   0  0
    1.0371   -0.8066    0.0000 O   0  0
    1.7966   -1.0565    0.0000 O   0  0
    2.3461   -1.0093    0.0000 O   0  0
    3.9814   -1.5838    0.0000 O   0  0
    4.3265    1.3932    0.0000 O   0  0
    2.4918    1.6032    0.0000 O   0  0
    1.2603    1.6391    0.0000 O   0  0
   -1.3439    0.0377    0.0000 O   0  0
   -1.8695    0.6736    0.0000 C   0  0
   -1.5815    1.4467    0.0000 O   0  0
   -2.6830    0.5364    0.0000 C   0  0  2  0  0  0
   -2.9709   -0.2367    0.0000 O   0  0
   -3.2085    1.1724    0.0000 C   0  0  2  0  0  0
   -2.9206    1.9455    0.0000 C   0  0
   -3.4461    2.5814    0.0000 C   0  0
   -3.1582    3.3545    0.0000 C   0  0
   -2.3447    3.4917    0.0000 C   0  0
   -1.8191    2.8558    0.0000 C   0  0
   -2.1071    2.0827    0.0000 C   0  0
   -4.0221    1.0352    0.0000 N   0  0
   -4.3100    0.2621    0.0000 C   0  0
   -3.7845   -0.3738    0.0000 O   0  0
   -5.1235    0.1249    0.0000 O   0  0
   -5.6491    0.7608    0.0000 C   0  0
   -6.1746    1.3968    0.0000 C   0  0
   -6.2850    0.2353    0.0000 C   0  0
   -5.0132    1.2864    0.0000 C   0  0
    1.0609   -1.4300    0.0000 C   0  0
    0.3697   -0.9796    0.0000 O   0  0
    1.0165   -2.2538    0.0000 C   0  0
    1.7077   -2.7041    0.0000 C   0  0
    1.6632   -3.5279    0.0000 C   0  0
    0.9276   -3.9014    0.0000 C   0  0
    0.2364   -3.4510    0.0000 C   0  0
    0.2808   -2.6272    0.0000 C   0  0
    2.1507   -1.8108    0.0000 C   0  0
    2.7471   -2.3808    0.0000 O   0  0
    1.3588   -2.0424    0.0000 C   0  0
    4.7642   -0.9544    0.0000 H   0  0
    2.1348   -0.6650    0.0000 H   0  0
    4.7775   -3.9214    0.0000 O   0  0
    5.3298   -3.1758    0.0000 O   0  0
    6.2411   -2.4025    0.0000 O   0  0
  1  2  1  0
  1 14  1  0
  1 15  1  0
  1 21  1  1
  2  3  1  0
  2 22  1  6
  3  4  1  0
  3  8  1  0
  4  5  1  0
 20  4  1  0
  4 23  1  6
  5  6  1  0
  5 24  1  0
  6  7  1  0
  7  8  1  0
  7 25  1  1
  8  9  1  0
  8 19  1  1
 10  9  1  0
  9 26  2  0
 10 11  1  0
 10 27  1  1
 11 12  2  0
 11 15  1  0
 12 13  1  0
 12 18  1  0
 13 14  1  0
 13 28  1  6
 15 16  1  0
 15 17  1  0
 20 24  1  0
 48 22  1  0
 56 23  1  0
 29 28  1  0
 29 30  2  0
 29 31  1  0
 31 32  1  6
 31 33  1  0
 33 34  1  0
 33 40  1  1
 34 35  1  0
 34 39  2  0
 35 36  2  0
 36 37  1  0
 37 38  2  0
 38 39  1  0
 41 40  1  0
 41 42  2  0
 41 43  1  0
 44 43  1  0
 44 45  1  0
 44 46  1  0
 44 47  1  0
 48 49  2  0
 48 50  1  0
 50 51  2  0
 50 55  1  0
 51 52  1  0
 52 53  2  0
 53 54  1  0
 54 55  2  0
 56 57  2  0
 56 58  1  0
  5 59  1  6
  3 60  1  6
M  END