
  SciTegic12091219252D

 19 20  0  0  1  0            999 V2000
    0.0792   -0.1792    0.0000 O   0  0
   -0.5292   -0.5375    0.0000 C   0  0
    0.6958   -0.5292    0.0000 C   0  0  1  0  0  0
   -1.1458   -0.1833    0.0000 C   0  0
    0.6958   -1.2375    0.0000 C   0  0
    1.3083   -0.1750    0.0000 C   0  0
    2.5333   -0.1667    0.0000 N   0  0
   -0.5292   -1.2500    0.0000 C   0  0
    1.9208   -0.5250    0.0000 C   0  0
   -1.1500    0.5250    0.0000 C   0  0
   -1.7583   -0.5375    0.0000 C   0  0
    0.0875   -1.5917    0.0000 C   0  0
    1.3125   -1.5833    0.0000 C   0  0
    3.1500   -0.5208    0.0000 C   0  0
   -1.1458   -1.6042    0.0000 C   0  0
   -1.7583   -1.2500    0.0000 C   0  0
    0.0875   -2.3000    0.0000 C   0  0
    1.3167   -2.2917    0.0000 C   0  0
    0.7042   -2.6542    0.0000 C   0  0
  2  1  1  0
  3  1  1  0
  4  2  2  0
  3  5  1  6
  6  3  1  0
  7  9  1  0
  8  2  1  0
  9  6  1  0
 10  4  1  0
 11  4  1  0
 12  5  2  0
 13  5  1  0
 14  7  1  0
 15  8  2  0
 16 11  2  0
 17 12  1  0
 18 13  2  0
 19 18  1  0
 15 16  1  0
 19 17  2  0
M  END