
  SciTegic12231509382D

 26 29  0  0  0  0            999 V2000
   -0.8793    0.0317    0.0000 C   0  0
   -0.8793    0.8567    0.0000 C   0  0
   -0.1649    1.2692    0.0000 C   0  0
    0.5496    0.8567    0.0000 C   0  0
    1.2641    1.2692    0.0000 C   0  0
    1.9785    0.8567    0.0000 C   0  0
    1.9785    0.0317    0.0000 C   0  0
   -0.1649   -0.3808    0.0000 C   0  0
    0.5496    0.0317    0.0000 C   0  0
    1.2641   -0.3808    0.0000 N   0  0
    1.2641   -1.2058    0.0000 C   0  0
    0.5496   -1.6183    0.0000 C   0  0
   -0.1649   -1.2058    0.0000 O   0  0
   -1.5938   -0.3808    0.0000 N   0  0
   -1.5938   -1.2058    0.0000 C   0  0
   -2.3083   -1.6183    0.0000 C   0  0
   -3.0228   -1.2058    0.0000 N   0  0
   -3.0228   -0.3808    0.0000 C   0  0
   -2.3083    0.0317    0.0000 C   0  0
   -3.7372   -1.6183    0.0000 C   0  0
    1.9785   -1.6183    0.0000 C   0  0
   -1.5938    1.2692    0.0000 F   0  0
    1.2641    2.0942    0.0000 O   0  0
    2.6930    1.2692    0.0000 C   0  0
    2.6930    2.0942    0.0000 O   0  0
    3.4075    0.8567    0.0000 O   0  0
  1  2  1  0
  2  3  2  0
  3  4  1  0
  4  5  1  0
  5  6  1  0
  6  7  2  0
  1  8  2  0
  4  9  2  0
  8  9  1  0
  7 10  1  0
  9 10  1  0
 10 11  1  0
 11 12  1  0
  8 13  1  0
 12 13  1  0
  1 14  1  0
 14 15  1  0
 15 16  1  0
 16 17  1  0
 17 18  1  0
 14 19  1  0
 18 19  1  0
 17 20  1  0
 11 21  1  0
  2 22  1  0
  5 23  2  0
  6 24  1  0
 24 25  1  0
 24 26  2  0
M  END