
  SciTegic12091219312D

 28 30  0  0  0  0            999 V2000
   -3.1458  -13.6542    0.0000 C   0  0
   -3.7750  -13.3125    0.0000 C   0  0
   -2.5458  -13.3042    0.0000 C   0  0
   -3.1458  -14.3667    0.0000 C   0  0
   -3.7750  -12.5917    0.0000 C   0  0
   -1.9208  -13.6500    0.0000 C   0  0
   -2.5458  -12.5917    0.0000 C   0  0
    1.1417  -12.5792    0.0000 N   0  0
   -1.3208  -12.5917    0.0000 C   0  0
   -1.3083  -13.3042    0.0000 C   0  0
   -1.9250  -12.2375    0.0000 C   0  0
   -4.3750  -13.6667    0.0000 C   0  0
   -0.7083  -12.2375    0.0000 O   0  0
   -0.0875  -12.5792    0.0000 C   0  0
    0.5167  -12.2167    0.0000 C   0  0
   -3.7625  -14.7292    0.0000 C   0  0
   -4.3958  -12.2417    0.0000 C   0  0
   -3.1583  -12.2375    0.0000 C   0  0
   -2.5333  -14.7250    0.0000 C   0  0
    1.1500  -13.2792    0.0000 C   0  0
    1.7500  -12.2083    0.0000 C   0  0
   -5.0083  -13.3417    0.0000 C   0  0
   -3.7583  -15.4417    0.0000 C   0  0
   -4.3833  -11.5542    0.0000 C   0  0
   -3.1500  -11.5500    0.0000 C   0  0
   -2.5250  -15.4375    0.0000 C   0  0
   -3.1500  -15.7917    0.0000 C   0  0
   -3.7833  -11.1917    0.0000 C   0  0
  2  1  2  0
  3  1  1  0
  4  1  1  0
  5  2  1  0
  6  3  2  0
  7  3  1  0
  8 15  1  0
  9 11  1  0
 10  6  1  0
 11  7  2  0
 12  2  1  0
 13  9  1  0
 14 13  1  0
 15 14  1  0
 16  4  2  0
 17  5  1  0
 18  5  2  0
 19  4  1  0
 20  8  1  0
 21  8  1  0
 22 12  1  0
 23 16  1  0
 24 17  2  0
 25 18  1  0
 26 19  2  0
 27 26  1  0
 28 25  2  0
  9 10  2  0
 27 23  2  0
 28 24  1  0
M  END