
  SciTegic12231509382D

  8  8  0  0  0  0            999 V2000
   -0.8461   -4.1974    0.0000 N   0  0
    0.2339   -4.9820    0.0000 N   0  0
    0.5359   -1.6500    0.0000 N   0  0
   -0.1786   -3.7125    0.0000 C   0  0
    0.4888   -4.1974    0.0000 C   0  0
   -0.5911   -4.9820    0.0000 C   0  0
   -0.1786   -2.8875    0.0000 C   0  0
    0.5359   -2.4750    0.0000 C   0  0
  1  4  1  0
  1  6  2  0
  2  5  1  0
  2  6  1  0
  3  8  1  0
  4  5  2  0
  4  7  1  0
  7  8  1  0
M  END