
  SciTegic01031412312D

 23 25  0  0  0  0            999 V2000
    5.2763  -13.1583    0.0000 C   0  0
    5.7808  -12.7340    0.0000 C   0  0  1  0  0  0
    6.7408  -12.7233    0.0000 C   0  0  1  0  0  0
    6.8720  -11.9197    0.0000 C   0  0
    6.3222  -12.3557    0.0000 N   0  0
    5.4032  -12.3564    0.0000 C   0  0
    6.3836  -13.3088    0.0000 C   0  0
    6.7878  -13.7102    0.0000 C   0  0
    5.9715  -13.8897    0.0000 C   0  0
    6.0677  -13.5075    0.0000 N   0  0
    5.5413  -14.1427    0.0000 C   0  0
    4.7279  -14.0044    0.0000 C   0  0
    5.8282  -14.9162    0.0000 O   0  0
    4.2015  -14.6396    0.0000 C   0  0
    3.3882  -14.5014    0.0000 C   0  0
    3.1013  -13.7279    0.0000 C   0  0
    3.6277  -13.0926    0.0000 C   0  0
    4.4410  -13.2309    0.0000 C   0  0
    4.9674  -12.5957    0.0000 O   0  0
    4.6805  -11.8222    0.0000 C   0  0
    2.8618  -15.1366    0.0000 Cl  0  0
    2.2879  -13.5896    0.0000 N   0  0
    7.3067  -12.1230    0.0000 H   0  0
  1  2  1  0
  2  3  1  0
  3  4  1  0
  4  5  1  0
  5  6  1  0
  6  1  1  0
  5  7  1  0
  3  8  1  0
  8  9  1  0
  9  7  1  0
  2 10  1  6
 10 11  1  0
 11 12  1  0
 11 13  2  0
 12 14  1  0
 12 18  2  0
 14 15  2  0
 15 16  1  0
 16 17  2  0
 17 18  1  0
 18 19  1  0
 19 20  1  0
 15 21  1  0
 16 22  1  0
  3 23  1  6
M  END