
          11290713132D 1   1.00000     0.00000     0

 65 72  0     1  0            999 V2000
    5.9934    0.6308    0.0000 N   0  0  0  0  0  0           0  0  0
    6.7092    0.2206    0.0000 C   0  0  0  0  0  0           0  0  0
    6.7119   -0.6044    0.0000 O   0  0  0  0  0  0           0  0  0
    7.4223    0.6354    0.0000 C   0  0  0  0  0  0           0  0  0
    8.1381    0.2252    0.0000 O   0  0  0  0  0  0           0  0  0
    8.1408   -0.5998    0.0000 C   0  0  0  0  0  0           0  0  0
    7.4292   -1.0115    0.0000 C   0  0  0  0  0  0           0  0  0
    7.4315   -1.8357    0.0000 C   0  0  0  0  0  0           0  0  0
    8.1478   -2.2467    0.0000 C   0  0  0  0  0  0           0  0  0
    8.8633   -1.8275    0.0000 C   0  0  0  0  0  0           0  0  0
    8.8575   -1.0046    0.0000 C   0  0  0  0  0  0           0  0  0
    8.1516   -3.0717    0.0000 C   0  0  0  0  0  0           0  0  0
    8.8679   -3.4810    0.0000 C   0  0  0  0  0  0           0  0  0
    8.8717   -4.3060    0.0000 C   0  0  0  0  0  0           0  0  0
    8.2084   -4.7949    0.0000 C   0  0  0  0  0  0           0  0  0
    8.4670   -5.5784    0.0000 C   0  0  0  0  0  0           0  0  0
    9.5432   -4.7888    0.0000 N   0  3  0  0  0  0           0  0  0
    9.2929   -5.5706    0.0000 C   0  0  0  0  0  0           0  0  0
    9.8417   -6.1749    0.0000 C   0  0  0  0  0  0           0  0  0
   10.3424   -4.6114    0.0000 B   0  5  0  0  0  0           0  0  0
   10.8941   -5.2214    0.0000 N   0  0  3  0  0  0           0  0  0
   10.6477   -6.0020    0.0000 C   0  0  0  0  0  0           0  0  0
   11.3139   -6.4775    0.0000 C   0  0  0  0  0  0           0  0  0
   11.9721   -5.9909    0.0000 C   0  0  0  0  0  0           0  0  0
   11.7125   -5.2146    0.0000 C   0  0  0  0  0  0           0  0  0
   10.1250   -3.8083    0.0000 F   0  0  0  0  0  0           0  0  0
   11.1375   -4.3917    0.0000 F   0  0  0  0  0  0           0  0  0
   12.1918   -4.5431    0.0000 C   0  0  0  0  0  0           0  0  0
   13.0166   -4.5346    0.0000 C   0  0  0  0  0  0           0  0  0
   13.2649   -3.7478    0.0000 C   0  0  0  0  0  0           0  0  0
   12.5934   -3.2685    0.0000 C   0  0  0  0  0  0           0  0  0
   11.9301   -3.7591    0.0000 S   0  0  0  0  0  0           0  0  0
   -1.1419   -3.5194    0.0000 N   0  0  0  0  0  0           0  0  0
   -0.4255   -3.1060    0.0000 C   0  0  0  0  0  0           0  0  0
   -0.4284   -2.2755    0.0000 N   0  0  0  0  0  0           0  0  0
   -1.1437   -1.8664    0.0000 C   0  0  0  0  0  0           0  0  0
   -1.8568   -3.1065    0.0000 C   0  0  0  0  0  0           0  0  0
   -1.8601   -2.2822    0.0000 C   0  0  0  0  0  0           0  0  0
   -2.6451   -2.0306    0.0000 N   0  0  0  0  0  0           0  0  0
   -3.1270   -2.6995    0.0000 C   0  0  0  0  0  0           0  0  0
   -2.6397   -3.3643    0.0000 N   0  0  3  0  0  0           0  0  0
   -3.0583   -4.0750    0.0000 C   0  0  2  0  0  0           0  0  0
   -3.8789   -4.1586    0.0000 O   0  0  0  0  0  0           0  0  0
   -4.0574   -4.9639    0.0000 C   0  0  1  0  0  0           0  0  0
   -3.3467   -5.3825    0.0000 C   0  0  2  0  0  0           0  0  0
   -2.7290   -4.8359    0.0000 C   0  0  1  0  0  0           0  0  0
   -4.8140   -5.2928    0.0000 C   0  0  0  0  0  0           0  0  0
   -5.4772   -4.8021    0.0000 O   0  0  0  0  0  0           0  0  0
   -4.9074   -6.1125    0.0000 N   0  0  0  0  0  0           0  0  0
   -5.6640   -6.4415    0.0000 C   0  0  0  0  0  0           0  0  0
   -5.7574   -7.2612    0.0000 C   0  0  0  0  0  0           0  0  0
   -3.2676   -6.2037    0.0000 O   0  0  0  0  0  0           0  0  0
   -1.9237   -5.0151    0.0000 O   0  0  0  0  0  0           0  0  0
   -1.1464   -1.0414    0.0000 N   0  0  0  0  0  0           0  0  0
   -0.4333   -0.6266    0.0000 C   0  0  0  0  0  0           0  0  0
    0.2825   -1.0368    0.0000 C   0  0  0  0  0  0           0  0  0
    0.9957   -0.6220    0.0000 C   0  0  0  0  0  0           0  0  0
    1.7115   -1.0321    0.0000 N   0  0  0  0  0  0           0  0  0
    2.4246   -0.6173    0.0000 C   0  0  0  0  0  0           0  0  0
    3.1404   -1.0275    0.0000 O   0  0  0  0  0  0           0  0  0
    2.4219    0.2076    0.0000 C   0  0  0  0  0  0           0  0  0
    3.1351    0.6225    0.0000 C   0  0  0  0  0  0           0  0  0
    3.8509    0.2123    0.0000 C   0  0  0  0  0  0           0  0  0
    4.5640    0.6271    0.0000 C   0  0  0  0  0  0           0  0  0
    5.2798    0.2169    0.0000 C   0  0  0  0  0  0           0  0  0
 29 30  1  0     0  0
 30 31  2  0     0  0
 31 32  1  0     0  0
 32 28  1  0     0  0
 15 16  2  0     0  0
 37 33  1  0     0  0
 16 18  1  0     0  0
 33 34  2  0     0  0
 17 14  2  0     0  0
 34 35  1  0     0  0
 17 18  1  0     0  0
 35 36  2  0     0  0
 36 38  1  0     0  0
 37 38  2  0     0  0
  8  9  2  0     0  0
  4  5  1  0     0  0
  9 10  1  0     0  0
 17 20  1  0     0  0
 38 39  1  0     0  0
 39 40  2  0     0  0
 40 41  1  0     0  0
 41 37  1  0     0  0
 18 19  2  0     0  0
 42 41  1  1     0  0
 42 43  1  0     0  0
 19 22  1  0     0  0
 21 20  1  0     0  0
 21 22  1  0     0  0
  2  3  2  0     0  0
 43 44  1  0     0  0
 44 45  1  0     0  0
 45 46  1  0     0  0
 46 42  1  0     0  0
 10 11  2  0     0  0
 44 47  1  1     0  0
 11  6  1  0     0  0
 47 48  2  0     0  0
  5  6  1  0     0  0
 47 49  1  0     0  0
  9 12  1  0     0  0
 49 50  1  0     0  0
 22 23  2  0     0  0
 50 51  1  0     0  0
 23 24  1  0     0  0
 45 52  1  6     0  0
 24 25  2  0     0  0
 46 53  1  6     0  0
 25 21  1  0     0  0
 36 54  1  0     0  0
  1  2  1  0     0  0
 54 55  1  0     0  0
 20 26  1  0     0  0
 55 56  1  0     0  0
 12 13  2  0     0  0
 56 57  1  0     0  0
 20 27  1  0     0  0
 57 58  1  0     0  0
  6  7  2  0     0  0
 58 59  1  0     0  0
 25 28  1  0     0  0
 59 60  2  0     0  0
 28 29  2  0     0  0
 59 61  1  0     0  0
 13 14  1  0     0  0
 61 62  1  0     0  0
 14 15  1  0     0  0
 62 63  1  0     0  0
  2  4  1  0     0  0
 63 64  1  0     0  0
  7  8  1  0     0  0
 64 65  1  0     0  0
 65  1  1  0     0  0
M  CHG  2  17   1  20  -1
M  END