
  SciTegic12091219282D

 21 23  0  0  0  0            999 V2000
    3.2625   -5.5500    0.0000 C   0  0
    3.8750   -5.9042    0.0000 C   0  0
    5.1042   -5.9000    0.0000 N   0  0
    3.2625   -4.8375    0.0000 C   0  0
    2.6500   -5.9042    0.0000 C   0  0
    2.0292   -5.5542    0.0000 N   0  0
    4.4917   -5.5500    0.0000 C   0  0
    3.8792   -4.4875    0.0000 C   0  0
    2.6417   -4.4917    0.0000 C   0  0
    2.6417   -3.7792    0.0000 C   0  0
    3.8792   -3.7750    0.0000 C   0  0
    3.2625   -3.4167    0.0000 C   0  0
    5.3042   -6.5792    0.0000 C   0  0
    5.6917   -5.5042    0.0000 C   0  0
    1.4167   -5.9125    0.0000 C   0  0
    2.6500   -6.6250    0.0000 C   0  0
    3.2542   -2.7042    0.0000 C   0  0
    6.0125   -6.6042    0.0000 C   0  0
    6.2500   -5.9375    0.0000 C   0  0
    1.4167   -6.6250    0.0000 C   0  0
    2.0292   -6.9792    0.0000 C   0  0
  2  1  2  0
  3  7  1  0
  4  1  1  0
  5  1  1  0
  6  5  2  0
  7  2  1  0
  8  4  2  0
  9  4  1  0
 10  9  2  0
 11  8  1  0
 12 10  1  0
 13  3  1  0
 14  3  1  0
 15  6  1  0
 16  5  1  0
 17 12  1  0
 18 13  1  0
 19 14  1  0
 20 21  1  0
 21 16  2  0
 20 15  2  0
 12 11  2  0
 19 18  1  0
M  END