
  Mrv17a0 11271712232D          

 31 33  0  0  0  0            999 V2000
   47.3111   -1.1439    0.0000 C   0  0  0  0  0  0  0  0  0  0  0  0
   46.4933   -1.1245    0.0000 N   0  0  0  0  0  0  0  0  0  0  0  0
   47.7274   -0.4034    0.0000 C   0  0  0  0  0  0  0  0  0  0  0  0
   47.2966    0.2983    0.0000 C   0  0  0  0  0  0  0  0  0  0  0  0
   46.4497    0.3225    0.0000 N   0  0  0  0  0  0  0  0  0  0  0  0
   46.0335   -0.4228    0.0000 C   0  0  0  0  0  0  0  0  0  0  0  0
   47.8773   -1.7537    0.0000 N   0  0  0  0  0  0  0  0  0  0  0  0
   48.5355   -0.5873    0.0000 C   0  0  0  0  0  0  0  0  0  0  0  0
   52.8571    0.9032    0.0000 C   0  0  0  0  0  0  0  0  0  0  0  0
   53.5540    0.4580    0.0000 N   0  0  0  0  0  0  0  0  0  0  0  0
   48.6177   -1.3907    0.0000 C   0  0  0  0  0  0  0  0  0  0  0  0
   54.2607    1.6727    0.0000 C   0  0  0  0  0  0  0  0  0  0  0  0
   54.2607    0.8548    0.0000 C   0  0  2  0  0  0  0  0  0  0  0  0
   56.3949    0.3370    0.0000 C   0  0  0  0  0  0  0  0  0  0  0  0
   47.7080    1.0145    0.0000 O   0  0  0  0  0  0  0  0  0  0  0  0
   52.1167    0.4918    0.0000 C   0  0  0  0  0  0  0  0  0  0  0  0
   55.0107    2.0453    0.0000 O   0  0  0  0  0  0  0  0  0  0  0  0
   52.8426    1.7259    0.0000 O   0  0  0  0  0  0  0  0  0  0  0  0
   57.1256    0.6758    0.0000 O   0  0  0  0  0  0  0  0  0  0  0  0
   53.5685    2.1179    0.0000 O   0  0  0  0  0  0  0  0  0  0  0  0
   49.2614   -0.1953    0.0000 C   0  0  0  0  0  0  0  0  0  0  0  0
   45.2012   -0.4374    0.0000 N   0  0  0  0  0  0  0  0  0  0  0  0
   56.3464   -0.4857    0.0000 O   0  0  0  0  0  0  0  0  0  0  0  0
   54.9721    0.4145    0.0000 C   0  0  0  0  0  0  0  0  0  0  0  0
   51.4198    0.9226    0.0000 C   0  0  0  0  0  0  0  0  0  0  0  0
   52.1167   -0.3212    0.0000 C   0  0  0  0  0  0  0  0  0  0  0  0
   55.6931    0.7871    0.0000 C   0  0  0  0  0  0  0  0  0  0  0  0
   50.6988   -0.2824    0.0000 C   0  0  0  0  0  0  0  0  0  0  0  0
   49.9632   -0.6648    0.0000 C   0  0  0  0  0  0  0  0  0  0  0  0
   51.4053   -0.7180    0.0000 C   0  0  0  0  0  0  0  0  0  0  0  0
   50.6988    0.5257    0.0000 C   0  0  0  0  0  0  0  0  0  0  0  0
  2  1  1  0  0  0  0
  3  1  2  0  0  0  0
  4  3  1  0  0  0  0
  5  6  1  0  0  0  0
  6  2  2  0  0  0  0
  7  1  1  0  0  0  0
  8  3  1  0  0  0  0
  9 16  1  0  0  0  0
 10  9  1  0  0  0  0
 11  7  1  0  0  0  0
 13 12  1  6  0  0  0
 13 10  1  0  0  0  0
 14 27  1  0  0  0  0
 15  4  2  0  0  0  0
 16 26  2  0  0  0  0
 17 12  1  0  0  0  0
 18  9  2  0  0  0  0
 19 14  1  0  0  0  0
 20 12  2  0  0  0  0
 21  8  1  0  0  0  0
 22  6  1  0  0  0  0
 23 14  2  0  0  0  0
 24 13  1  0  0  0  0
 25 31  2  0  0  0  0
 26 30  1  0  0  0  0
 27 24  1  0  0  0  0
 28 29  1  0  0  0  0
 29 21  1  0  0  0  0
 30 28  2  0  0  0  0
 31 28  1  0  0  0  0
 11  8  2  0  0  0  0
  5  4  1  0  0  0  0
 16 25  1  0  0  0  0
M  END