
  SciTegic10301317112D

 93 99  0  0  1  0            999 V2000
  -12.1918   -4.8309    0.0000 N   0  0
  -10.2141   -5.7705    0.0000 N   0  0
   -2.3398   -2.3032    0.0000 N   0  0
  -11.3737   -4.9249    0.0000 C   0  0
  -11.0414   -5.6811    0.0000 C   0  0  1  0  0  0
   -1.8677   -2.9792    0.0000 C   0  0
   -0.5202   -3.5361    0.0000 N   0  0
  -13.4752   -5.1059    0.0000 C   0  0  2  0  0  0
   -9.7214   -5.1105    0.0000 C   0  0
   -0.7150   -4.3382    0.0000 C   0  0
  -14.1879   -5.5207    0.0000 C   0  0
   -3.1557   -2.2802    0.0000 C   0  0  2  0  0  0
   -1.0450   -2.9105    0.0000 C   0  0  1  0  0  0
  -12.7395   -5.4428    0.0000 C   0  0
  -12.5883   -4.1205    0.0000 C   0  0
   -8.9009   -5.2067    0.0000 C   0  0  1  0  0  0
  -13.3927   -4.2901    0.0000 C   0  0
   -7.5878   -4.6407    0.0000 C   0  0
   -8.4082   -4.5444    0.0000 N   0  0
    0.2864   -6.2793    0.0000 C   0  0
  -14.1879   -6.3457    0.0000 N   0  0
   -0.3117   -5.7086    0.0000 N   0  0
  -11.5318   -6.3411    0.0000 C   0  0
   -3.6484   -2.9425    0.0000 C   0  0
   -9.8887   -6.5268    0.0000 C   0  0
   -0.1169   -4.9065    0.0000 C   0  0  1  0  0  0
   -7.0951   -3.9784    0.0000 C   0  0  1  0  0  0
    1.4919  -10.3974    0.0000 C   0  0
    3.4536   -5.3557    0.0000 C   0  0
  -16.3260  -10.0651    0.0000 C   0  0
   -6.2746   -4.0746    0.0000 N   0  0
  -15.6179   -6.3503    0.0000 C   0  0
   -2.0717   -1.5217    0.0000 C   0  0
   -3.4055   -1.5033    0.0000 C   0  0
   -5.7819   -3.4124    0.0000 C   0  0
   -4.4688   -2.8463    0.0000 N   0  0
  -10.9818   -4.3932    0.0000 O   0  0
  -14.9006   -6.7605    0.0000 C   0  0  2  0  0  0
   -2.1496   -3.5774    0.0000 O   0  0
    1.3361  -11.0368    0.0000 N   0  0
  -16.8966  -10.3974    0.0000 N   0  0
    3.9302   -5.8140    0.0000 N   0  0
   -9.9391   -4.6040    0.0000 O   0  0
   -1.3475   -4.5238    0.0000 O   0  0
  -11.2064   -7.0974    0.0000 C   0  0
  -14.7608   -5.1907    0.0000 O   0  0
   -7.3265   -5.2457    0.0000 O   0  0
    0.9190   -6.0936    0.0000 O   0  0
   -2.7340   -1.0267    0.0000 C   0  0  1  0  0  0
   -7.4205   -3.2198    0.0000 C   0  0
   -3.3871   -3.5499    0.0000 O   0  0
  -10.3883   -7.1913    0.0000 C   0  0
  -16.0923   -6.6276    0.0000 O   0  0
   -5.9996   -2.9082    0.0000 O   0  0
    0.0917   -7.0813    0.0000 C   0  0  2  0  0  0
    2.6607   -5.5871    0.0000 N   0  0
  -16.3260   -9.2401    0.0000 N   0  0
    0.8961   -9.8268    0.0000 N   0  0
   -4.9615   -3.5086    0.0000 C   0  0
  -15.7531  -10.3951    0.0000 N   0  0
    2.1267  -10.2095    0.0000 N   0  0
    3.6094   -4.7163    0.0000 N   0  0
    0.2406   -3.2175    0.0000 C   0  0
  -15.6202   -5.6903    0.0000 O   0  0
   -8.5732   -5.9630    0.0000 C   0  0
   -0.5431   -7.2670    0.0000 N   0  0
   -6.9255   -2.5575    0.0000 C   0  0
   -0.6279   -2.2069    0.0000 C   0  0
   -2.7225   -0.3667    0.0000 O   0  0
  -12.3225   -3.3367    0.0000 C   0  0
  -13.9519   -3.6805    0.0000 C   0  0
  -12.3500   -6.2471    0.0000 C   0  0
   -7.9178   -6.0386    0.0000 O   0  0
    0.1742   -2.3971    0.0000 C   0  0
    0.6761   -4.6774    0.0000 C   0  0
  -14.9006   -7.5855    0.0000 C   0  0
  -11.6968   -7.7574    0.0000 C   0  0
    1.0908   -9.0247    0.0000 C   0  0
  -15.6133   -8.8253    0.0000 C   0  0
    2.0648   -5.0165    0.0000 C   0  0
    0.6875   -7.6520    0.0000 C   0  0
   -6.1051   -2.6538    0.0000 C   0  0
   -7.2532   -1.8013    0.0000 C   0  0
    1.2719   -5.2480    0.0000 C   0  0
  -15.6133   -8.0003    0.0000 C   0  0
    0.4927   -8.4540    0.0000 C   0  0
  -13.6906   -2.8875    0.0000 C   0  0
  -12.8862   -2.7157    0.0000 C   0  0
  -12.8427   -6.9071    0.0000 C   0  0
  -12.5150   -7.6634    0.0000 C   0  0
   -5.6124   -1.9915    0.0000 C   0  0
   -6.7605   -1.1390    0.0000 C   0  0
   -5.9401   -1.2352    0.0000 C   0  0
  2  5  1  0
  3 12  1  0
  4  1  1  0
  5  4  1  6
  6  3  1  0
  7 13  1  0
  8 14  1  0
  9  2  1  0
 10  7  1  0
  8 11  1  1
 12 24  1  6
 13  6  1  6
 14  1  1  0
 15  1  1  0
 16  9  1  0
 17 15  1  0
 18 19  1  0
 16 19  1  1
 20 22  1  0
 21 11  1  0
 26 22  1  6
 23  5  1  0
 24 36  1  0
 25  2  1  0
 26 10  1  0
 27 18  1  0
 28 58  2  0
 29 56  2  0
 30 57  2  0
 27 31  1  6
 32 38  1  0
 33  3  1  0
 34 12  1  0
 35 31  1  0
 36 59  1  0
 37  4  2  0
 38 21  1  1
 39  6  2  0
 40 28  1  0
 41 30  1  0
 42 29  1  0
 43  9  2  0
 44 10  2  0
 45 23  1  0
 46 11  2  0
 47 18  2  0
 48 20  2  0
 49 34  1  0
 50 27  1  0
 51 24  2  0
 52 25  1  0
 53 32  2  0
 54 35  2  0
 55 20  1  0
 56 80  1  0
 57 79  1  0
 58 78  1  0
 59 35  1  0
 60 30  1  0
 61 28  1  0
 62 29  1  0
 63  7  1  0
 64 32  1  0
 65 16  1  0
 55 66  1  1
 67 50  1  0
 68 13  1  0
 49 69  1  1
 70 15  1  0
 71 17  1  0
 72 23  2  0
 73 65  1  0
 74 68  1  0
 75 26  1  0
 76 38  1  0
 77 45  2  0
 78 86  1  0
 79 85  1  0
 80 84  1  0
 81 55  1  0
 82 67  2  0
 83 67  1  0
 84 75  1  0
 85 76  1  0
 86 81  1  0
 87 71  1  0
 88 70  1  0
 89 72  1  0
 90 77  1  0
 91 82  1  0
 92 83  2  0
 93 92  1  0
 17  8  1  0
 88 87  1  0
 45 52  1  0
 89 90  2  0
 93 91  2  0
 49 33  1  0
 74 63  1  0
M  END