
  SciTegic04181614082D

 77 83  0  0  0  0            999 V2000
   -3.0700   -1.1200    0.0000 N   0  0
    5.5300    0.3300    0.0000 C   0  0  1  0  0  0
    6.0300   -1.0800    0.0000 C   0  0
    7.4900   -1.0800    0.0000 C   0  0
    7.9400    0.3300    0.0000 C   0  0
    6.6900    1.2100    0.0000 N   0  0
    1.9500   -0.6700    0.0000 C   0  0  2  0  0  0
    1.3500   -2.0400    0.0000 C   0  0
    2.4400   -3.0300    0.0000 C   0  0
    3.7100   -2.3100    0.0000 C   0  0
    3.4100   -0.8000    0.0000 N   0  0
   -0.5200   -0.4400    0.0000 N   0  0
   -0.5200   -1.8400    0.0000 C   0  0  2  0  0  0
   -2.0400   -2.4100    0.0000 C   0  0
    0.7404   -2.6507    0.0000 C   0  0
   -2.3059   -3.3740    0.0000 O   0  0
    0.8800    0.1500    0.0000 C   0  0
    1.0326    1.3403    0.0000 O   0  0
   -5.4800   -0.6700    0.0000 C   0  0
   -6.4690   -0.8182    0.0000 O   0  0
   -4.7900    0.6300    0.0000 N   0  0
   -6.1400    1.7500    0.0000 C   0  0  2  0  0  0
   -5.5000    3.1600    0.0000 C   0  0
   -7.6047    1.4465    0.0000 C   0  0
   -8.6048    2.5655    0.0000 C   0  0
  -10.0740    2.2630    0.0000 C   0  0
  -11.0707    3.3840    0.0000 C   0  0
  -10.5982    4.8076    0.0000 C   0  0
   -9.1290    5.1103    0.0000 C   0  0
   -8.1324    3.9893    0.0000 C   0  0
   -6.1553    4.1653    0.0000 O   0  0
   -3.6300    3.1800    0.0000 N   0  0
   -1.8700    3.9400    0.0000 C   0  0  2  0  0  0
   -0.3600    2.9400    0.0000 C   0  0
   -1.7161    5.4302    0.0000 C   0  0
   -2.9310    6.3114    0.0000 C   0  0
   -2.8072    7.5050    0.0000 O   0  0
   -4.0267    5.8222    0.0000 N   0  0
   -0.3413    1.7401    0.0000 O   0  0
    0.7700    3.7400    0.0000 N   0  0
    2.0200    2.9400    0.0000 C   0  0  1  0  0  0
    2.0554    1.7405    0.0000 C   0  0
    3.1900    3.7900    0.0000 C   0  0
    4.3800    2.9400    0.0000 N   0  0
    3.1860    4.7900    0.0000 O   0  0
    5.5000    3.7400    0.0000 C   0  0  2  0  0  0
    6.7100    2.9400    0.0000 C   0  0
    5.4524    5.2391    0.0000 C   0  0
    6.7274    6.0308    0.0000 C   0  0
    6.6821    7.5302    0.0000 C   0  0
    7.9579    8.3191    0.0000 C   0  0
    9.2790    7.6088    0.0000 C   0  0
    9.3244    6.1095    0.0000 C   0  0
    8.0486    5.3205    0.0000 C   0  0
    7.7702    3.5021    0.0000 O   0  0
    4.2100    0.6700    0.0000 C   0  0
    3.7315    1.7705    0.0000 O   0  0
    0.6681   -4.1498    0.0000 C   0  0
    1.9297   -4.9627    0.0000 C   0  0
    1.8574   -6.4618    0.0000 N   0  0
    3.1190   -7.2748    0.0000 C   0  0
    3.0612   -8.4734    0.0000 N   0  0
    4.1861   -6.7258    0.0000 N   0  0
   -4.4200   -1.7300    0.0000 C   0  0
   -4.6822   -3.2058    0.0000 C   0  0
   -6.0929   -3.7181    0.0000 C   0  0
   -8.9045   -4.7496    0.0000 C   0  0
   -8.6541   -3.2576    0.0000 C   0  0
   -7.2482   -2.7423    0.0000 C   0  0
   -7.7555   -5.7092    0.0000 C   0  0
   -6.3496   -5.1939    0.0000 C   0  0
   -5.2006   -6.1535    0.0000 C   0  0
   -5.4573   -7.6284    0.0000 C   0  0
   -6.8632   -8.1437    0.0000 C   0  0
   -8.0122   -7.1841    0.0000 C   0  0
    0.9816   -0.9194    0.0000 H   0  0
    4.8549   -0.4078    0.0000 H   0  0
  2  3  1  0
  3  4  1  0
  4  5  1  0
  5  6  1  0
  6  2  1  0
  7  8  1  0
  8  9  1  0
  9 10  1  0
 10 11  1  0
 11  7  1  0
 12 13  1  0
 14 13  1  0
 14  1  1  0
 13 15  1  1
 14 16  2  0
 12 17  1  0
  7 17  1  0
 17 18  2  0
 19 20  2  0
 19 21  1  0
 21 22  1  0
 22 23  1  0
 22 24  1  1
 24 25  1  0
 25 26  2  0
 26 27  1  0
 27 28  2  0
 28 29  1  0
 29 30  2  0
 30 25  1  0
 23 31  2  0
 23 32  1  0
 32 33  1  0
 33 34  1  0
 33 35  1  1
 35 36  1  0
 36 37  2  0
 36 38  1  0
 34 39  2  0
 34 40  1  0
 40 41  1  0
 41 42  1  6
 41 43  1  0
 43 44  1  0
 43 45  2  0
 44 46  1  0
 46 47  1  0
 46 48  1  1
 48 49  1  0
 49 50  2  0
 50 51  1  0
 51 52  2  0
 52 53  1  0
 53 54  2  0
 54 49  1  0
 47 55  2  0
 11 56  1  0
  2 56  1  0
 56 57  2  0
 47  6  1  0
 15 58  1  0
 58 59  1  0
 59 60  1  0
 60 61  1  0
 61 62  2  0
 61 63  1  0
 19 64  1  0
  1 64  1  0
 64 65  1  0
 65 66  1  0
 66 71  2  0
 70 67  2  0
 67 68  1  0
 68 69  2  0
 69 66  1  0
 70 71  1  0
 71 72  1  0
 72 73  2  0
 73 74  1  0
 74 75  2  0
 75 70  1  0
  7 76  1  6
  2 77  1  1
M  END