
  SciTegic01091215432D

 60 66  0  0  0  0            999 V2000
    3.8057   -4.9981    0.0000 N   0  0
    4.5223   -5.4068    0.0000 C   0  0
    5.2346   -4.9905    0.0000 C   0  0
    4.5267   -6.2318    0.0000 O   0  0
    5.9512   -5.3992    0.0000 C   0  0
    5.9556   -6.2242    0.0000 C   0  0
    6.6723   -6.6329    0.0000 C   0  0
    6.6766   -7.4579    0.0000 C   0  0
    5.9644   -7.8742    0.0000 N   0  0
    5.9687   -8.6992    0.0000 C   0  0
    5.2565   -9.1155    0.0000 O   0  0
    6.6854   -9.1079    0.0000 C   0  0
    6.6898   -9.9329    0.0000 O   0  0
    7.4064  -10.3416    0.0000 C   0  0
    7.4055  -11.1644    0.0000 C   0  0
    8.1213  -11.5730    0.0000 C   0  0
    8.8346  -11.1566    0.0000 C   0  0
    8.8275  -10.3274    0.0000 C   0  0
    8.1112   -9.9225    0.0000 C   0  0
    9.5518  -11.5644    0.0000 C   0  0
   10.2635  -11.1472    0.0000 C   0  0
   10.9458  -11.6110    0.0000 C   0  0
   10.9762  -12.4334    0.0000 C   0  0
   11.7685  -12.6636    0.0000 C   0  0
   11.7265  -11.3294    0.0000 N   0  0
   12.2285  -11.9823    0.0000 C   0  0
   13.0404  -11.8745    0.0000 C   0  0
   12.0363  -10.5688    0.0000 B   0  5
   12.0289   -9.7424    0.0000 F   0  0
   12.8546  -10.4619    0.0000 N   0  3
   13.3561  -11.1114    0.0000 C   0  0
   14.1288  -10.8352    0.0000 C   0  0
   14.1049  -10.0149    0.0000 C   0  0
   13.3174   -9.7843    0.0000 C   0  0
   13.0396   -9.0075    0.0000 C   0  0
   13.5010   -8.3268    0.0000 C   0  0
   12.9968   -7.6738    0.0000 C   0  0
   12.2199   -7.9515    0.0000 C   0  0
   12.2442   -8.7762    0.0000 S   0  0
   11.3164  -10.1549    0.0000 F   0  0
   -4.7556   -6.6875    0.0000 C   0  0
   -4.7568   -7.5148    0.0000 C   0  0
   -4.0419   -7.9277    0.0000 C   0  0
   -4.0437   -6.2747    0.0000 C   0  0
   -3.3284   -6.6838    0.0000 C   0  0
   -3.3276   -7.5107    0.0000 C   0  0
   -2.6123   -7.9216    0.0000 C   0  0
   -1.8973   -7.5069    0.0000 C   0  0
   -1.9020   -6.6769    0.0000 C   0  0
   -2.6179   -6.2697    0.0000 C   0  0
   -2.6223   -5.4447    0.0000 O   0  0
   -1.9100   -5.0284    0.0000 C   0  0
   -1.1934   -5.4371    0.0000 C   0  0  2  0  0  0
   -0.4811   -5.0208    0.0000 C   0  0
   -1.1890   -6.2621    0.0000 O   0  0
    0.2356   -5.4295    0.0000 N   0  0
    0.9478   -5.0132    0.0000 C   0  0
    1.6645   -5.4220    0.0000 C   0  0
    2.3767   -5.0057    0.0000 C   0  0
    3.0934   -5.4144    0.0000 C   0  0
  2  4  2  0
 28 29  1  0
 30 31  1  0
 14 15  2  0
  7  8  1  0
 15 16  1  0
 16 17  2  0
 31 32  1  0
 32 33  2  0
 33 34  1  0
 34 30  2  0
  8  9  1  0
 34 35  1  0
 35 36  2  0
 17 18  1  0
  3  5  1  0
 18 19  2  0
 19 14  1  0
 36 37  1  0
 37 38  2  0
 38 39  1  0
 39 35  1  0
  9 10  1  0
 28 40  1  0
 17 20  1  0
  2  3  1  0
 41 42  1  0
 20 21  2  0
 42 43  2  0
 43 46  1  0
 10 11  2  0
 45 44  1  0
 44 41  2  0
 21 22  1  0
 22 23  2  0
 45 46  2  0
  5  6  1  0
 46 47  1  0
 10 12  1  0
 47 48  2  0
 23 24  1  0
 48 49  1  0
 24 26  2  0
 49 50  2  0
 50 45  1  0
 25 22  1  0
 50 51  1  0
 25 26  1  0
 51 52  1  0
  1  2  1  0
 52 53  1  0
 12 13  1  0
 53 54  1  0
  6  7  1  0
 53 55  1  6
 13 14  1  0
 54 56  1  0
 25 28  1  0
 56 57  1  0
 26 27  1  0
 57 58  1  0
 27 31  2  0
 58 59  1  0
 30 28  1  0
 59 60  1  0
 60  1  1  0
M  CHG  2  28  -1  30   1
M  END