
  SciTegic12091219302D

 33 36  0  0  0  0            999 V2000
    3.2500   -4.8917    0.0000 N   0  0
    3.8417   -5.3125    0.0000 C   0  0
    4.1750   -4.2167    0.0000 N   0  0
    4.4042   -4.8667    0.0000 N   0  0
    3.5042   -4.2167    0.0000 C   0  0
    8.1167   -4.1417    0.0000 N   0  0
    8.7167   -3.7917    0.0000 C   0  0
    6.8667   -4.8667    0.0000 N   0  0
    3.8292   -5.9917    0.0000 O   0  0
    9.3375   -4.1625    0.0000 C   0  0
    7.4875   -3.7917    0.0000 C   0  0
    8.1167   -4.8667    0.0000 C   0  0
    2.6375   -5.2750    0.0000 C   0  0
    5.0250   -5.2292    0.0000 C   0  0
    6.8667   -4.1625    0.0000 C   0  0
    7.4875   -5.2292    0.0000 C   0  0
    9.9417   -3.7917    0.0000 C   0  0
    5.6417   -4.8667    0.0000 C   0  0
    3.1417   -3.6167    0.0000 C   0  0
    6.2542   -5.2292    0.0000 C   0  0
   10.5542   -4.1625    0.0000 Cl  0  0
    1.4042   -5.2750    0.0000 O   0  0
    2.0250   -4.8917    0.0000 C   0  0
    0.8000   -4.8917    0.0000 C   0  0
    8.7167   -3.0875    0.0000 C   0  0
    9.3375   -2.7375    0.0000 C   0  0
    9.9417   -3.0875    0.0000 C   0  0
    0.8000   -4.1792    0.0000 C   0  0
    0.1792   -5.2417    0.0000 C   0  0
    2.4292   -3.6167    0.0000 C   0  0
   -0.4375   -4.8917    0.0000 C   0  0
    0.1792   -3.8250    0.0000 C   0  0
   -0.4375   -4.1792    0.0000 C   0  0
  2  1  1  0
  3  5  2  0
  4  2  1  0
  5  1  1  0
  6 12  1  0
  7  6  1  0
  8 20  1  0
  9  2  2  0
 10  7  2  0
 11 15  1  0
 12 16  1  0
 13  1  1  0
 14  4  1  0
 15  8  1  0
 16  8  1  0
 17 10  1  0
 18 14  1  0
 19  5  1  0
 20 18  1  0
 21 17  1  0
 22 23  1  0
 23 13  1  0
 24 22  1  0
 25  7  1  0
 26 25  2  0
 27 26  1  0
 28 24  2  0
 29 24  1  0
 30 19  1  0
 31 29  2  0
 32 28  1  0
 33 32  2  0
  4  3  1  0
 33 31  1  0
  6 11  1  0
 27 17  2  0
M  END