
  Mrv0541 04051115152D          

 16 18  0  0  0  0            999 V2000
   -0.3984    0.6941    0.0000 C   0  0  0  0  0  0  0  0  0  0  0  0
    2.3001    0.2816    0.0000 C   0  0  0  0  0  0  0  0  0  0  0  0
    1.8152    0.9490    0.0000 C   0  0  0  0  0  0  0  0  0  0  0  0
   -0.3984   -1.7809    0.0000 C   0  0  0  0  0  0  0  0  0  0  0  0
   -1.8273   -0.1309    0.0000 C   0  0  0  0  0  0  0  0  0  0  0  0
   -1.8273    0.6941    0.0000 C   0  0  0  0  0  0  0  0  0  0  0  0
   -1.1128    1.1066    0.0000 C   0  0  0  0  0  0  0  0  0  0  0  0
    0.3161    1.1066    0.0000 C   0  0  0  0  0  0  0  0  0  0  0  0
    1.0306    0.6941    0.0000 C   0  0  0  0  0  0  0  0  0  0  0  0
    1.0306   -0.1309    0.0000 C   0  0  0  0  0  0  0  0  0  0  0  0
    0.3161   -0.5434    0.0000 C   0  0  0  0  0  0  0  0  0  0  0  0
   -0.3984   -0.1309    0.0000 C   0  0  0  0  0  0  0  0  0  0  0  0
   -1.1128   -0.5434    0.0000 O   0  0  0  0  0  0  0  0  0  0  0  0
    1.8152   -0.3859    0.0000 O   0  0  0  0  0  0  0  0  0  0  0  0
    0.3161   -1.3684    0.0000 O   0  0  0  0  0  0  0  0  0  0  0  0
   -2.5418   -0.5434    0.0000 O   0  0  0  0  0  0  0  0  0  0  0  0
  1  7  1  0  0  0  0
  1  8  2  0  0  0  0
  1 12  1  0  0  0  0
  2  3  2  0  0  0  0
  2 14  1  0  0  0  0
  3  9  1  0  0  0  0
  4 15  1  0  0  0  0
  5  6  1  0  0  0  0
  5 13  1  0  0  0  0
  5 16  2  0  0  0  0
  6  7  2  0  0  0  0
  8  9  1  0  0  0  0
 10  9  2  0  0  0  0
 10 11  1  0  0  0  0
 10 14  1  0  0  0  0
 11 12  2  0  0  0  0
 11 15  1  0  0  0  0
 12 13  1  0  0  0  0
M  END