
  SciTegic06061311522D

 44 52  0  0  0  0            999 V2000
   -1.2130   -1.1456    0.0000 C   0  0
   -1.6679   -0.4494    0.0000 C   0  0
   -2.5129   -0.4143    0.0000 C   0  0
   -2.9504   -1.1288    0.0000 C   0  0
   -2.5066   -1.8636    0.0000 C   0  0
   -1.6816   -1.8563    0.0000 C   0  0
   -1.1372    0.2282    0.0000 N   0  0
   -0.3876   -0.9187    0.0000 C   0  0
   -0.3357   -0.0953    0.0000 C   0  0
   -3.0387    0.2861    0.0000 N   0  0
   -3.8568   -0.0748    0.0000 C   0  0
   -3.7800   -0.8962    0.0000 C   0  0
    1.0905   -0.1853    0.0000 C   0  0
    0.4034    0.2714    0.0000 C   0  0
    0.2995   -1.3754    0.0000 C   0  0
    1.0385   -1.0087    0.0000 C   0  0
   -4.6066    0.2694    0.0000 C   0  0
   -5.2796   -0.2078    0.0000 C   0  0
   -5.2028   -1.0292    0.0000 C   0  0
   -4.4530   -1.3734    0.0000 C   0  0
   -2.0407    1.1060    0.0000 O   0  0
   -2.6983    2.1123    0.0000 C   0  0
   -1.2607    2.0201    0.0000 C   0  0  2  0  0  0
   -1.9441    2.5290    0.0000 C   0  0  2  0  0  0
   -2.7923    1.1903    0.0000 C   0  0  2  0  0  0
   -1.2971    1.1244    0.0000 C   0  0  1  0  0  0
   -1.8884    3.3522    0.0000 N   0  0
   -1.1477    3.7155    0.0000 C   0  0
   -2.5734    3.8120    0.0000 C   0  0
   -0.4627    3.2556    0.0000 O   0  0
   -1.0920    4.5386    0.0000 C   0  0
   -0.3513    4.9019    0.0000 C   0  0
   -0.2955    5.7250    0.0000 C   0  0
   -0.9805    6.1848    0.0000 C   0  0
   -1.7212    5.8215    0.0000 C   0  0
   -1.7769    4.9984    0.0000 C   0  0
   -0.5161    2.3753    0.0000 O   0  0
    0.1638    1.9080    0.0000 C   0  0
   -2.7546   -2.6505    0.0000 C   0  0
   -2.0828   -3.1295    0.0000 N   0  0
   -1.4197   -2.6386    0.0000 C   0  0
   -3.5369   -2.9124    0.0000 O   0  0
   -0.4740    1.1805    0.0000 C   0  0
   -3.6034    1.3412    0.0000 H   0  0
  6  1  1  0
  2  3  1  0
  4  5  1  0
  1  8  1  0
  2  1  2  0
  7  2  1  0
  7  9  1  0
 10  3  1  0
  4  3  2  0
 12  4  1  0
 10 11  1  0
 14  9  2  0
  9  8  1  0
  8 15  2  0
 13 14  1  0
 16 13  2  0
 15 16  1  0
 11 17  1  0
 12 11  2  0
 20 12  1  0
 17 18  2  0
 18 19  1  0
 19 20  2  0
 10 25  1  0
 25 21  1  0
  7 26  1  0
 26 21  1  0
 25 22  1  0
 26 23  1  0
 22 24  1  0
 23 24  1  0
 24 27  1  1
 27 28  1  0
 27 29  1  0
 28 30  2  0
 28 31  1  0
 32 31  2  0
 36 31  1  0
 32 33  1  0
 33 34  2  0
 34 35  1  0
 35 36  2  0
 23 37  1  1
 37 38  1  0
  5 39  1  0
  6  5  2  0
  6 41  1  0
 39 40  1  0
 40 41  1  0
 39 42  2  0
 26 43  1  6
 25 44  1  6
M  END