
  SciTegic11201309402D

 92 98  0  0  1  0            999 V2000
    7.9462   -3.1109    0.0000 N   0  0
    8.9774   -5.0702    0.0000 N   0  0
    8.3587   -4.5260    0.0000 C   0  0
    8.5134   -3.7124    0.0000 C   0  0  1  0  0  0
    3.1682    0.0516    0.0000 N   0  0
    3.0135   -0.7562    0.0000 C   0  0
    7.1326   -3.2140    0.0000 C   0  0
    9.7852   -4.8811    0.0000 C   0  0  2  0  0  0
   10.3638   -4.2968    0.0000 C   0  0
    6.6342   -2.5495    0.0000 C   0  0  1  0  0  0
    7.1900   -1.9421    0.0000 N   0  0
    3.1796   -1.5698    0.0000 C   0  0  1  0  0  0
    7.4936   -1.1687    0.0000 C   0  0
    8.9087   -5.8952    0.0000 C   0  0
    8.1868   -2.3203    0.0000 C   0  0
    7.1900    0.4239    0.0000 N   0  0
    2.4062   -1.8734    0.0000 N   0  0
    3.6093    0.7562    0.0000 C   0  0  2  0  0  0
    4.2682    1.2547    0.0000 C   0  0
    2.2687   -2.6812    0.0000 C   0  0
   11.1544   -4.4916    0.0000 N   0  0
    7.4936   -0.3437    0.0000 C   0  0  1  0  0  0
    1.1000   -4.5260    0.0000 C   0  0
    9.3154   -3.5291    0.0000 C   0  0
    5.0702    1.4781    0.0000 N   0  0
    1.7531   -4.0218    0.0000 N   0  0
   10.2149   -5.5916    0.0000 C   0  0
    9.6763   -6.2103    0.0000 C   0  0
   -0.9453   -0.6703    0.0000 C   0  0
    4.8353   -5.2077    0.0000 C   0  0
   12.2086   -0.3781    0.0000 C   0  0
    6.6342    1.0312    0.0000 C   0  0
   12.5180   -4.1135    0.0000 C   0  0
    8.9946   -2.1312    0.0000 C   0  0
    9.5560   -2.7385    0.0000 C   0  0
    1.6214   -3.1968    0.0000 C   0  0  1  0  0  0
    4.2682   -2.7729    0.0000 S   0  0
    5.0702   -2.9963    0.0000 S   0  0
   11.7274   -3.9072    0.0000 C   0  0  2  0  0  0
    7.5795   -4.8010    0.0000 O   0  0
   10.1404   -3.5062    0.0000 O   0  0
    2.1999   -0.7562    0.0000 O   0  0
   -1.0770    0.1489    0.0000 N   0  0
    5.4713   -4.6921    0.0000 N   0  0
   11.4122   -0.1719    0.0000 N   0  0
    6.8061   -3.9760    0.0000 O   0  0
    8.3014   -1.3234    0.0000 O   0  0
    5.8952   -2.9218    0.0000 C   0  0
    3.6093   -2.2745    0.0000 C   0  0
    8.3014   -0.1891    0.0000 C   0  0
    3.0421   -2.9791    0.0000 O   0  0
    0.3323   -4.2280    0.0000 O   0  0
    3.9015    1.9937    0.0000 O   0  0
    5.8952    1.4093    0.0000 C   0  0
   13.0851   -3.5291    0.0000 O   0  0
    7.1326    1.7015    0.0000 O   0  0
    1.2375   -5.3452    0.0000 C   0  0  2  0  0  0
   -0.1719   -0.9683    0.0000 N   0  0
    4.0619   -4.9041    0.0000 N   0  0
   12.4263   -1.1573    0.0000 N   0  0
   12.7758    0.2062    0.0000 N   0  0
    4.9671   -6.0213    0.0000 N   0  0
   -1.5926   -1.1859    0.0000 N   0  0
    2.3718    0.2578    0.0000 C   0  0
   12.7414   -4.9041    0.0000 O   0  0
    0.5844   -5.8666    0.0000 N   0  0
    8.8743    0.3953    0.0000 C   0  0
    3.0823    1.3922    0.0000 C   0  0
   11.0227   -5.7577    0.0000 C   0  0
    2.3203    1.0828    0.0000 C   0  0
    9.9341   -6.9951    0.0000 C   0  0
    9.2295   -1.3578    0.0000 C   0  0
   10.3466   -2.5495    0.0000 C   0  0
    0.8594   -2.8932    0.0000 C   0  0
   11.5039   -3.1166    0.0000 C   0  0
   -0.0458   -1.7760    0.0000 C   0  0
    3.4202   -5.4311    0.0000 C   0  0
   11.8477   -1.7417    0.0000 C   0  0
    1.9995   -5.6431    0.0000 C   0  0
    8.6451    1.1859    0.0000 C   0  0
    9.6763    0.1891    0.0000 C   0  0
   12.0711   -2.5323    0.0000 C   0  0
    0.7276   -2.0796    0.0000 C   0  0
    2.6468   -5.1389    0.0000 C   0  0
   11.2919   -6.5311    0.0000 C   0  0
   10.7419   -7.1498    0.0000 C   0  0
   10.0258   -1.1687    0.0000 C   0  0
   10.5930   -1.7703    0.0000 C   0  0
    9.2181    1.7703    0.0000 C   0  0
   10.2435    0.7734    0.0000 C   0  0
   10.0201    1.5754    0.0000 C   0  0
    3.7246    1.7495    0.0000 H   0  0
  2  3  1  0
  4  3  1  6
  4  1  1  0
  5  6  1  0
  6 12  1  0
  7  1  1  0
  8  2  1  0
  8  9  1  6
 10  7  1  6
 11 10  1  0
 12 49  1  0
 13 11  1  0
 14  2  1  0
 15  1  1  0
 16 22  1  0
 12 17  1  6
 18  5  1  0
 19 25  1  0
 20 17  1  0
 21  9  1  0
 22 13  1  0
 23 26  1  0
  4 24  1  0
 25 54  1  0
 36 26  1  1
  8 27  1  0
 28 14  1  0
 29 58  2  0
 30 59  2  0
 31 60  2  0
 32 16  1  0
 33 39  1  0
 34 15  1  0
 35 34  2  0
 36 20  1  0
 37 38  1  0
 38 48  1  0
 39 21  1  1
 40  3  2  0
 41  9  2  0
 42  6  2  0
 43 29  1  0
 44 30  1  0
 45 31  1  0
 46  7  2  0
 47 13  2  0
 10 48  1  0
 49 37  1  0
 22 50  1  1
 51 20  2  0
 52 23  2  0
 53 19  2  0
 54 32  1  0
 55 33  2  0
 56 32  2  0
 57 23  1  0
 58 76  1  0
 59 77  1  0
 60 78  1  0
 61 31  1  0
 62 30  1  0
 63 29  1  0
 64  5  1  0
 65 33  1  0
 57 66  1  1
 67 50  1  0
 18 68  1  0
 69 27  1  0
 70 64  1  0
 71 28  1  0
 72 34  1  0
 73 35  1  0
 36 74  1  0
 39 75  1  0
 76 83  1  0
 77 84  1  0
 78 82  1  0
 57 79  1  0
 80 67  1  0
 81 67  2  0
 82 75  1  0
 83 74  1  0
 84 79  1  0
 85 69  1  0
 86 71  1  0
 87 72  2  0
 88 87  1  0
 89 80  2  0
 90 81  1  0
 91 90  2  0
 35 24  1  0
 88 73  2  0
 28 27  1  0
 85 86  1  0
 91 89  1  0
 19 18  1  0
 70 68  1  0
 18 92  1  6
M  END