
  SciTegic12231509382D

 29 33  0  0  0  0            999 V2000
    7.4028    4.3154    0.0000 N   0  0
    7.8877    3.6480    0.0000 C   0  0
    8.7082    3.7342    0.0000 O   0  0
    7.5521    2.8943    0.0000 C   0  0
    8.0370    2.2269    0.0000 C   0  0
    7.7015    1.4732    0.0000 C   0  0
    6.8810    1.3870    0.0000 C   0  0
    6.3961    2.0544    0.0000 C   0  0
    6.7316    2.8081    0.0000 C   0  0
    6.5455    0.6333    0.0000 C   0  0
    6.9580   -0.0812    0.0000 N   0  0
    6.4059   -0.6943    0.0000 C   0  0
    5.6522   -0.3587    0.0000 C   0  0
    5.7385    0.4618    0.0000 N   0  0
    4.9378   -0.7712    0.0000 C   0  0
    4.9378   -1.5962    0.0000 C   0  0
    4.2233   -2.0087    0.0000 C   0  0
    3.5088   -1.5962    0.0000 C   0  0
    2.7242   -1.8511    0.0000 O   0  0
    2.2393   -1.1837    0.0000 C   0  0
    2.7242   -0.5163    0.0000 O   0  0
    3.5088   -0.7712    0.0000 C   0  0
    4.2233   -0.3587    0.0000 C   0  0
    6.5774   -1.5012    0.0000 C   0  0
    7.3621   -1.7562    0.0000 C   0  0
    7.5336   -2.5631    0.0000 C   0  0
    6.9205   -3.1152    0.0000 C   0  0
    6.1359   -2.8602    0.0000 C   0  0
    5.9644   -2.0533    0.0000 N   0  0
  1  2  1  0
  2  3  2  0
  2  4  1  0
  4  5  2  0
  5  6  1  0
  6  7  2  0
  7  8  1  0
  8  9  2  0
  4  9  1  0
  7 10  1  0
 10 11  2  0
 11 12  1  0
 12 13  2  0
 13 14  1  0
 10 14  1  0
 13 15  1  0
 15 16  2  0
 16 17  1  0
 17 18  2  0
 18 19  1  0
 19 20  1  0
 20 21  1  0
 21 22  1  0
 18 22  1  0
 22 23  2  0
 15 23  1  0
 12 24  1  0
 24 25  2  0
 25 26  1  0
 26 27  2  0
 27 28  1  0
 28 29  2  0
 24 29  1  0
M  END