
          11290713132D 1   1.00000     0.00000     0

 66 73  0     1  0            999 V2000
    8.6476   -7.8567    0.0000 N   0  0  0  0  0  0           0  0  0
    9.3634   -8.2669    0.0000 C   0  0  0  0  0  0           0  0  0
    9.3660   -9.0919    0.0000 O   0  0  0  0  0  0           0  0  0
   10.0765   -7.8521    0.0000 C   0  0  0  0  0  0           0  0  0
   10.7923   -8.2623    0.0000 O   0  0  0  0  0  0           0  0  0
   10.7950   -9.0873    0.0000 C   0  0  0  0  0  0           0  0  0
   10.0834   -9.4990    0.0000 C   0  0  0  0  0  0           0  0  0
   10.0857  -10.3232    0.0000 C   0  0  0  0  0  0           0  0  0
   10.8020  -10.7342    0.0000 C   0  0  0  0  0  0           0  0  0
   11.5175  -10.3150    0.0000 C   0  0  0  0  0  0           0  0  0
   11.5117   -9.4921    0.0000 C   0  0  0  0  0  0           0  0  0
   10.8058  -11.5592    0.0000 C   0  0  0  0  0  0           0  0  0
   11.5221  -11.9685    0.0000 C   0  0  0  0  0  0           0  0  0
   11.5259  -12.7935    0.0000 C   0  0  0  0  0  0           0  0  0
   10.8626  -13.2824    0.0000 C   0  0  0  0  0  0           0  0  0
   11.1211  -14.0659    0.0000 C   0  0  0  0  0  0           0  0  0
   12.1974  -13.2763    0.0000 N   0  3  0  0  0  0           0  0  0
   11.9471  -14.0581    0.0000 C   0  0  0  0  0  0           0  0  0
   12.4959  -14.6624    0.0000 C   0  0  0  0  0  0           0  0  0
   12.9965  -13.0989    0.0000 B   0  5  0  0  0  0           0  0  0
   13.5482  -13.7089    0.0000 N   0  0  3  0  0  0           0  0  0
   13.3018  -14.4895    0.0000 C   0  0  0  0  0  0           0  0  0
   13.9680  -14.9650    0.0000 C   0  0  0  0  0  0           0  0  0
   14.6263  -14.4784    0.0000 C   0  0  0  0  0  0           0  0  0
   14.3667  -13.7021    0.0000 C   0  0  0  0  0  0           0  0  0
   12.7792  -12.2958    0.0000 F   0  0  0  0  0  0           0  0  0
   13.7917  -12.8792    0.0000 F   0  0  0  0  0  0           0  0  0
   14.8460  -13.0306    0.0000 C   0  0  0  0  0  0           0  0  0
   15.6707  -13.0221    0.0000 C   0  0  0  0  0  0           0  0  0
   15.9191  -12.2353    0.0000 C   0  0  0  0  0  0           0  0  0
   15.2475  -11.7560    0.0000 C   0  0  0  0  0  0           0  0  0
   14.5843  -12.2466    0.0000 S   0  0  0  0  0  0           0  0  0
    4.3656   -9.5196    0.0000 N   0  0  0  0  0  0           0  0  0
    5.0788   -9.1048    0.0000 C   0  0  0  0  0  0           0  0  0
    5.7946   -9.5150    0.0000 O   0  0  0  0  0  0           0  0  0
    5.0761   -8.2799    0.0000 C   0  0  0  0  0  0           0  0  0
    5.7892   -7.8650    0.0000 C   0  0  0  0  0  0           0  0  0
    6.5050   -8.2752    0.0000 C   0  0  0  0  0  0           0  0  0
    7.2182   -7.8604    0.0000 C   0  0  0  0  0  0           0  0  0
    7.9340   -8.2706    0.0000 C   0  0  0  0  0  0           0  0  0
    0.7956  -12.4194    0.0000 N   0  0  0  0  0  0           0  0  0
    1.5120  -12.0060    0.0000 C   0  0  0  0  0  0           0  0  0
    1.5091  -11.1755    0.0000 N   0  0  0  0  0  0           0  0  0
    0.7938  -10.7664    0.0000 C   0  0  0  0  0  0           0  0  0
    0.0807  -12.0065    0.0000 C   0  0  0  0  0  0           0  0  0
    0.0774  -11.1822    0.0000 C   0  0  0  0  0  0           0  0  0
   -0.7076  -10.9306    0.0000 N   0  0  0  0  0  0           0  0  0
   -1.1895  -11.5995    0.0000 C   0  0  0  0  0  0           0  0  0
   -0.7022  -12.2643    0.0000 N   0  0  3  0  0  0           0  0  0
   -1.1208  -12.9750    0.0000 C   0  0  2  0  0  0           0  0  0
   -1.9414  -13.0586    0.0000 O   0  0  0  0  0  0           0  0  0
   -2.1199  -13.8639    0.0000 C   0  0  1  0  0  0           0  0  0
   -1.4092  -14.2825    0.0000 C   0  0  2  0  0  0           0  0  0
   -0.7915  -13.7359    0.0000 C   0  0  1  0  0  0           0  0  0
   -2.8765  -14.1928    0.0000 C   0  0  0  0  0  0           0  0  0
   -3.5397  -13.7021    0.0000 O   0  0  0  0  0  0           0  0  0
   -2.9699  -15.0125    0.0000 N   0  0  0  0  0  0           0  0  0
   -3.7265  -15.3415    0.0000 C   0  0  0  0  0  0           0  0  0
   -3.8199  -16.1612    0.0000 C   0  0  0  0  0  0           0  0  0
   -1.3301  -15.1037    0.0000 O   0  0  0  0  0  0           0  0  0
    0.0138  -13.9151    0.0000 O   0  0  0  0  0  0           0  0  0
    0.7911   -9.9414    0.0000 N   0  0  0  0  0  0           0  0  0
    1.5042   -9.5266    0.0000 C   0  0  0  0  0  0           0  0  0
    2.2200   -9.9368    0.0000 C   0  0  0  0  0  0           0  0  0
    2.9332   -9.5220    0.0000 C   0  0  0  0  0  0           0  0  0
    3.6490   -9.9321    0.0000 C   0  0  0  0  0  0           0  0  0
 30 31  2  0     0  0
 31 32  1  0     0  0
 32 28  1  0     0  0
 15 16  2  0     0  0
 16 18  1  0     0  0
 33 34  1  0     0  0
 17 14  2  0     0  0
 34 35  2  0     0  0
 17 18  1  0     0  0
 34 36  1  0     0  0
 36 37  1  0     0  0
  8  9  2  0     0  0
 37 38  1  0     0  0
  4  5  1  0     0  0
 38 39  1  0     0  0
  9 10  1  0     0  0
 39 40  1  0     0  0
 40  1  1  0     0  0
 17 20  1  0     0  0
 45 41  1  0     0  0
 18 19  2  0     0  0
 41 42  2  0     0  0
 19 22  1  0     0  0
 42 43  1  0     0  0
 21 20  1  0     0  0
 43 44  2  0     0  0
 44 46  1  0     0  0
 45 46  2  0     0  0
 21 22  1  0     0  0
  2  3  2  0     0  0
 10 11  2  0     0  0
 11  6  1  0     0  0
  5  6  1  0     0  0
 46 47  1  0     0  0
 47 48  2  0     0  0
 48 49  1  0     0  0
 49 45  1  0     0  0
  9 12  1  0     0  0
 50 49  1  1     0  0
 50 51  1  0     0  0
 22 23  2  0     0  0
 23 24  1  0     0  0
 24 25  2  0     0  0
 25 21  1  0     0  0
 51 52  1  0     0  0
 52 53  1  0     0  0
 53 54  1  0     0  0
 54 50  1  0     0  0
  1  2  1  0     0  0
 52 55  1  1     0  0
 20 26  1  0     0  0
 55 56  2  0     0  0
 12 13  2  0     0  0
 55 57  1  0     0  0
 20 27  1  0     0  0
 57 58  1  0     0  0
  6  7  2  0     0  0
 58 59  1  0     0  0
 25 28  1  0     0  0
 53 60  1  6     0  0
 28 29  2  0     0  0
 54 61  1  6     0  0
 13 14  1  0     0  0
 44 62  1  0     0  0
 14 15  1  0     0  0
 62 63  1  0     0  0
  2  4  1  0     0  0
 63 64  1  0     0  0
  7  8  1  0     0  0
 64 65  1  0     0  0
 29 30  1  0     0  0
 65 66  1  0     0  0
 66 33  1  0     0  0
M  CHG  2  17   1  20  -1
M  END