
  CDK    9/16/09,9:57

 28 30  0  0  0  0  0  0  0  0999 V2000
   -1.5471   -4.0821    0.0000 C   0  0  0  0  0  0  0  0  0  0  0  0
   -1.5225   -4.9068    0.0000 C   0  0  0  0  0  0  0  0  0  0  0  0
   -0.7960   -5.2977    0.0000 N   0  0  0  0  0  0  0  0  0  0  0  0
   -0.0942   -4.8640    0.0000 C   0  0  0  0  0  0  0  0  0  0  0  0
    0.6323   -5.2550    0.0000 N   0  0  0  0  0  0  0  0  0  0  0  0
   -0.1188   -4.0394    0.0000 N   0  0  0  0  0  0  0  0  0  0  0  0
    1.3341   -4.8213    0.0000 C   0  0  0  0  0  0  0  0  0  0  0  0
    2.0606   -5.2122    0.0000 C   0  0  0  0  0  0  0  0  0  0  0  0
    1.3095   -3.9967    0.0000 O   0  0  0  0  0  0  0  0  0  0  0  0
    2.7624   -4.7786    0.0000 C   0  0  0  0  0  0  0  0  0  0  0  0
    3.4889   -5.1695    0.0000 C   0  0  0  0  0  0  0  0  0  0  0  0
    2.7378   -3.9539    0.0000 C   0  0  0  0  0  0  0  0  0  0  0  0
    3.4388   -3.5243    0.0000 C   0  0  0  0  0  0  0  0  0  0  0  0
    3.4145   -2.7005    0.0000 C   0  0  0  0  0  0  0  0  0  0  0  0
    2.6874   -2.3087    0.0000 C   0  0  0  0  0  0  0  0  0  0  0  0
    1.9834   -2.7469    0.0000 C   0  0  0  0  0  0  0  0  0  0  0  0
    2.0112   -3.5693    0.0000 C   0  0  0  0  0  0  0  0  0  0  0  0
    3.5093   -5.9925    0.0000 C   0  0  0  0  0  0  0  0  0  0  0  0
    4.2350   -6.3834    0.0000 C   0  0  0  0  0  0  0  0  0  0  0  0
    4.9378   -5.9496    0.0000 C   0  0  0  0  0  0  0  0  0  0  0  0
    4.9103   -5.1208    0.0000 C   0  0  0  0  0  0  0  0  0  0  0  0
    4.1842   -4.7337    0.0000 C   0  0  0  0  0  0  0  0  0  0  0  0
   -2.2736   -3.6912    0.0000 C   0  0  0  0  0  0  0  0  0  0  0  0
   -2.2983   -2.8665    0.0000 C   0  0  0  0  0  0  0  0  0  0  0  0
   -1.8839   -1.5976    0.0000 C   0  0  0  0  0  0  0  0  0  0  0  0
   -2.7089   -1.5966    0.0000 N   0  0  0  0  0  0  0  0  0  0  0  0
   -2.9666   -2.3804    0.0000 C   0  0  0  0  0  0  0  0  0  0  0  0
   -1.6323   -2.3821    0.0000 N   0  0  0  0  0  0  0  0  0  0  0  0
  3  4  1  0  0  0  0 
 14 15  2  0  0  0  0 
  7  8  1  0  0  0  0 
 15 16  1  0  0  0  0 
 16 17  2  0  0  0  0 
 17 12  1  0  0  0  0 
  7  9  2  0  0  0  0 
 11 18  2  0  0  0  0 
  4  5  1  0  0  0  0 
 18 19  1  0  0  0  0 
  8 10  1  0  0  0  0 
 19 20  2  0  0  0  0 
  2  3  1  0  0  0  0 
 20 21  1  0  0  0  0 
 10 11  1  0  0  0  0 
 21 22  2  0  0  0  0 
 22 11  1  0  0  0  0 
  4  6  2  0  0  0  0 
  1 23  1  0  0  0  0 
 10 12  1  0  0  0  0 
 23 24  1  0  0  0  0 
 25 26  1  0  0  0  0 
  1  2  1  0  0  0  0 
 12 13  2  0  0  0  0 
  5  7  1  0  0  0  0 
 13 14  1  0  0  0  0 
 26 27  1  0  0  0  0 
 27 24  2  0  0  0  0 
 24 28  1  0  0  0  0 
 28 25  2  0  0  0  0 
M  END