
  SciTegic12091219272D

 12 13  0  0  0  0            999 V2000
   -0.1208   -0.9500    0.0000 C   0  0
    0.1000   -0.2792    0.0000 N   0  0
    0.4500   -1.3667    0.0000 N   0  0
   -0.7250   -1.3250    0.0000 C   0  0
   -1.3458   -0.9917    0.0000 C   0  0
    0.8125   -0.2875    0.0000 C   0  0
    1.0250   -0.9542    0.0000 C   0  0
   -1.9458   -1.3625    0.0000 C   0  0
   -1.3625   -0.2792    0.0000 C   0  0
   -1.9958    0.0500    0.0000 C   0  0
   -2.5708   -1.0250    0.0000 C   0  0
   -2.5958   -0.3125    0.0000 C   0  0
  2  1  2  0
  3  1  1  0
  4  1  1  0
  5  4  1  0
  6  2  1  0
  7  3  1  0
  8  5  1  0
  9  5  2  0
 10  9  1  0
 11  8  2  0
 12 11  1  0
  6  7  1  0
 12 10  2  0
M  END