
  SciTegic12231509382D

 10 10  0  0  0  0            999 V2000
   23.1456   -9.3086    0.0000 C   0  0
   21.8820   -8.6463    0.0000 C   0  0
   21.0552   -8.6763    0.0000 C   0  0
   20.6695   -9.4063    0.0000 C   0  0
   21.1095  -10.1066    0.0000 C   0  0
   21.9394  -10.0725    0.0000 C   0  0
   22.3213   -9.3422    0.0000 C   0  0
   23.5869  -10.0059    0.0000 C   0  0
   24.4113   -9.9724    0.0000 N   0  0
   23.2037  -10.7365    0.0000 C   0  0
  2  3  2  0
  3  4  1  0
  4  5  2  0
  5  6  1  0
  6  7  2  0
  7  2  1  0
  7  1  1  0
  1  8  1  0
  8  9  1  0
  8 10  1  0
M  END