
  SciTegic06181315362D

 34 36  0  0  0  0            999 V2000
   25.1116  -20.7879    0.0000 C   0  0
   25.1104  -21.6153    0.0000 C   0  0
   25.8253  -22.0282    0.0000 C   0  0
   26.5418  -21.6149    0.0000 C   0  0
   26.5389  -20.7843    0.0000 C   0  0
   25.8235  -20.3751    0.0000 C   0  0
   24.3971  -20.3756    0.0000 O   0  0
   23.6827  -20.7882    0.0000 C   0  0
   23.6829  -21.6133    0.0000 C   0  0
   22.9685  -22.0260    0.0000 O   0  0
   27.2569  -22.0263    0.0000 O   0  0
   27.9708  -21.6125    0.0000 C   0  0
   28.6859  -22.0240    0.0000 C   0  0
   29.3997  -21.6103    0.0000 C   0  0
   28.6872  -22.8490    0.0000 O   0  0
   30.1148  -22.0217    0.0000 N   0  0
   30.8287  -21.6081    0.0000 C   0  0
   31.5438  -22.0195    0.0000 C   0  0
   32.2576  -21.6059    0.0000 N   0  0
   32.9728  -22.0173    0.0000 C   0  0
   33.6866  -21.6037    0.0000 N   0  0
   32.9740  -22.8423    0.0000 O   0  0
   34.4018  -22.0150    0.0000 C   0  0
   34.3993  -22.8391    0.0000 C   0  0
   35.1135  -23.2504    0.0000 C   0  0
   35.8284  -22.8368    0.0000 C   0  0
   35.8245  -22.0074    0.0000 C   0  0
   35.1096  -21.5998    0.0000 C   0  0
   22.2538  -21.6141    0.0000 C   0  0
   22.2647  -20.7882    0.0000 C   0  0
   21.4904  -20.5231    0.0000 C   0  0
   20.9958  -21.1837    0.0000 C   0  0
   21.4669  -21.8573    0.0000 C   0  0
   36.5368  -21.5912    0.0000 O   0  0
  1  2  2  0
  2  3  1  0
  3  4  2  0
  4  5  1  0
  5  6  2  0
  6  1  1  0
  1  7  1  0
  7  8  1  0
  8  9  1  0
  9 10  1  0
  4 11  1  0
 11 12  1  0
 12 13  1  0
 13 14  1  0
 13 15  1  0
 14 16  1  0
 16 17  1  0
 17 18  1  0
 18 19  1  0
 19 20  1  0
 20 21  1  0
 20 22  2  0
 21 23  1  0
 23 24  2  0
 24 25  1  0
 25 26  2  0
 26 27  1  0
 27 28  2  0
 28 23  1  0
 10 29  1  0
 29 30  1  0
 30 31  1  0
 31 32  1  0
 32 33  1  0
 33 29  1  0
 27 34  1  0
M  END