
          11280714472D 1   1.00000     0.00000     0

 33 36  0     0  0            999 V2000
   10.2542   -2.0167    0.0000 S   0  0  3  0  0  0           0  0  0
    3.1042   -1.1875    0.0000 N   0  0  0  0  0  0           0  0  0
    2.3792   -0.7792    0.0000 C   0  0  0  0  0  0           0  0  0
    3.1125   -2.0167    0.0000 C   0  0  0  0  0  0           0  0  0
   10.9667   -2.4292    0.0000 C   0  0  0  0  0  0           0  0  0
    2.3917   -2.4417    0.0000 N   0  0  0  0  0  0           0  0  0
    1.6750   -1.1917    0.0000 C   0  0  0  0  0  0           0  0  0
    1.6750   -2.0250    0.0000 C   0  0  0  0  0  0           0  0  0
   11.4250   -3.1125    0.0000 C   0  0  0  0  0  0           0  0  0
   10.1750   -2.9792    0.0000 O   0  0  0  0  0  0           0  0  0
   10.3875   -1.1292    0.0000 O   0  0  0  0  0  0           0  0  0
    9.5417   -2.4375    0.0000 N   0  0  0  0  0  0           0  0  0
    3.8292   -2.4375    0.0000 N   0  0  0  0  0  0           0  0  0
    2.3792    0.0500    0.0000 N   0  0  0  0  0  0           0  0  0
   12.2500   -3.0625    0.0000 C   0  0  0  0  0  0           0  0  0
   11.3292   -1.6875    0.0000 C   0  0  0  0  0  0           0  0  0
    0.9542   -0.7792    0.0000 C   0  0  0  0  0  0           0  0  0
   11.0542   -3.8542    0.0000 C   0  0  0  0  0  0           0  0  0
    0.9542   -2.4417    0.0000 C   0  0  0  0  0  0           0  0  0
   12.1542   -1.6292    0.0000 C   0  0  0  0  0  0           0  0  0
   12.6167   -2.3167    0.0000 C   0  0  0  0  0  0           0  0  0
    8.8292   -2.0250    0.0000 C   0  0  0  0  0  0           0  0  0
    4.5417   -2.0250    0.0000 C   0  0  0  0  0  0           0  0  0
   12.7042   -3.7500    0.0000 C   0  0  0  0  0  0           0  0  0
    5.2542   -2.4375    0.0000 C   0  0  0  0  0  0           0  0  0
    8.1167   -2.4375    0.0000 C   0  0  0  0  0  0           0  0  0
    5.9750   -2.0250    0.0000 C   0  0  0  0  0  0           0  0  0
    6.6875   -2.4375    0.0000 C   0  0  0  0  0  0           0  0  0
    7.4000   -2.0250    0.0000 C   0  0  0  0  0  0           0  0  0
    0.2375   -1.1917    0.0000 C   0  0  0  0  0  0           0  0  0
   11.5125   -4.5417    0.0000 C   0  0  0  0  0  0           0  0  0
    0.2375   -2.0292    0.0000 C   0  0  0  0  0  0           0  0  0
   12.3417   -4.4875    0.0000 C   0  0  0  0  0  0           0  0  0
  2  4  1  0     0  0
  3  2  2  0     0  0
  4 13  1  0     0  0
  5  1  1  0     0  0
  6  4  2  0     0  0
  7  8  1  0     0  0
  8  6  1  0     0  0
  9  5  1  0     0  0
 10  1  2  0     0  0
 11  1  2  0     0  0
 12  1  1  0     0  0
 13 23  1  0     0  0
 14  3  1  0     0  0
 15  9  1  0     0  0
 16  5  2  0     0  0
 17  7  2  0     0  0
 18  9  2  0     0  0
 19  8  2  0     0  0
 20 16  1  0     0  0
 21 20  2  0     0  0
 22 12  1  0     0  0
 23 25  1  0     0  0
 24 15  2  0     0  0
 25 27  1  0     0  0
 26 22  1  0     0  0
 27 28  1  0     0  0
 28 29  1  0     0  0
 29 26  1  0     0  0
 30 32  2  0     0  0
 31 18  1  0     0  0
 32 19  1  0     0  0
 33 31  2  0     0  0
 21 15  1  0     0  0
 24 33  1  0     0  0
  7  3  1  0     0  0
 17 30  1  0     0  0
M  END