
  SciTegic10301317112D

 52 56  0  0  0  0            999 V2000
    1.1751   -4.3444    0.0000 N   0  0
    0.0474   -2.4756    0.0000 N   0  0
    1.0035   -3.5375    0.0000 C   0  0
    0.2189   -3.2825    0.0000 C   0  0  2  0  0  0
    1.9287   -4.6800    0.0000 C   0  0  2  0  0  0
    0.6605   -1.9235    0.0000 C   0  0
    2.6432   -4.2675    0.0000 C   0  0
    0.4890   -1.1166    0.0000 C   0  0  1  0  0  0
   -0.7372   -2.2206    0.0000 C   0  0
    0.6230   -4.9575    0.0000 C   0  0
    1.1020   -0.5645    0.0000 N   0  0
    0.9305    0.2425    0.0000 C   0  0
    1.8425   -5.5005    0.0000 C   0  0
   -0.3942   -3.8346    0.0000 C   0  0
    3.3577   -4.6800    0.0000 N   0  0
    1.0355   -5.6720    0.0000 C   0  0
    6.9300   -3.4425    0.0000 C   0  0
    4.0721   -3.4425    0.0000 C   0  0
   -1.3503   -2.7726    0.0000 C   0  0
   -1.1788   -3.5796    0.0000 C   0  0
    1.6166   -2.9854    0.0000 O   0  0
    4.0721   -4.2675    0.0000 C   0  0  2  0  0  0
    1.5436    0.7945    0.0000 C   0  0  2  0  0  0
    6.2156   -3.0300    0.0000 N   0  0
    1.4451   -2.1785    0.0000 O   0  0
    2.6432   -3.4425    0.0000 O   0  0
    0.1459    0.4974    0.0000 O   0  0
    4.7866   -3.0300    0.0000 O   0  0
    1.3721    1.6015    0.0000 C   0  0
    6.9300   -4.2675    0.0000 N   0  0
    7.6445   -3.0300    0.0000 N   0  0
    2.3282    0.5395    0.0000 N   0  0
    3.3577   -3.0300    0.0000 O   0  0
   -0.2957   -0.8616    0.0000 C   0  0
    0.5875    1.8564    0.0000 C   0  0
   -0.2020   -4.9575    0.0000 C   0  0
   -0.4672   -0.0546    0.0000 O   0  0
    0.6230   -6.3865    0.0000 C   0  0
   -1.7919   -4.1317    0.0000 C   0  0
   -2.1350   -2.5177    0.0000 C   0  0
    4.7866   -4.6800    0.0000 C   0  0
    6.2156   -4.6800    0.0000 C   0  0
    0.4159    2.6634    0.0000 C   0  0
   -0.0256    1.3044    0.0000 C   0  0
    5.5011   -4.2675    0.0000 C   0  0
   -0.6145   -5.6720    0.0000 C   0  0
   -0.2020   -6.3865    0.0000 C   0  0
   -2.7480   -3.0697    0.0000 C   0  0
   -2.5765   -3.8767    0.0000 C   0  0
   -0.8102    1.5593    0.0000 C   0  0
   -0.3687    2.9183    0.0000 C   0  0
   -0.9818    2.3663    0.0000 C   0  0
  2  4  1  0
  3  1  1  0
  4  3  1  6
  5  1  1  0
  6  2  1  0
  5  7  1  6
  8  6  1  0
  9  2  1  0
 10  1  1  0
 11  8  1  0
 12 11  1  0
 13  5  1  0
 14  4  1  0
 15  7  1  0
 16 10  1  0
 17 30  2  0
 22 18  1  6
 19 20  2  0
 20 14  1  0
 21  3  2  0
 22 15  1  0
 23 12  1  0
 24 17  1  0
 25  6  2  0
 26  7  2  0
 27 12  2  0
 28 18  2  0
 29 23  1  0
 30 42  1  0
 31 17  1  0
 23 32  1  6
 33 18  1  0
  8 34  1  6
 35 29  1  0
 36 10  1  0
 37 34  1  0
 38 16  1  0
 39 20  1  0
 40 19  1  0
 41 22  1  0
 42 45  1  0
 43 35  2  0
 44 35  1  0
 45 41  1  0
 46 36  1  0
 47 46  1  0
 48 49  1  0
 49 39  2  0
 50 44  2  0
 51 43  1  0
 52 50  1  0
 13 16  1  0
 38 47  1  0
  9 19  1  0
 40 48  2  0
 51 52  2  0
M  END