
  SciTegic06181315362D

 37 39  0  0  0  0            999 V2000
    5.7151  -15.7165    0.0000 C   0  0
    5.7140  -16.5438    0.0000 C   0  0
    6.4288  -16.9567    0.0000 C   0  0
    7.1453  -16.5433    0.0000 C   0  0
    7.1424  -15.7129    0.0000 C   0  0
    6.4271  -15.3037    0.0000 C   0  0
    5.0006  -15.3041    0.0000 O   0  0
    4.2862  -15.7168    0.0000 C   0  0
    4.2864  -16.5418    0.0000 C   0  0
    3.5721  -16.9545    0.0000 O   0  0
    7.8604  -16.9547    0.0000 O   0  0
    8.5742  -16.5411    0.0000 C   0  0
    9.2893  -16.9525    0.0000 C   0  0
   10.0031  -16.5389    0.0000 C   0  0
    9.2905  -17.7775    0.0000 O   0  0
   10.7182  -16.9503    0.0000 N   0  0
   11.4320  -16.5366    0.0000 C   0  0
   12.1471  -16.9480    0.0000 C   0  0
   12.8610  -16.5343    0.0000 N   0  0
   13.5761  -16.9457    0.0000 C   0  0
   14.2899  -16.5321    0.0000 N   0  0
   13.5774  -17.7707    0.0000 O   0  0
   15.0050  -16.9435    0.0000 C   0  0
   15.0025  -17.7676    0.0000 C   0  0
   15.7168  -18.1789    0.0000 C   0  0
   16.4316  -17.7652    0.0000 C   0  0
   16.4276  -16.9359    0.0000 C   0  0
   15.7128  -16.5284    0.0000 C   0  0
    2.8574  -16.5425    0.0000 C   0  0
    2.8683  -15.7168    0.0000 C   0  0
    2.0940  -15.4517    0.0000 C   0  0
    1.5994  -16.1122    0.0000 C   0  0
    2.0706  -16.7858    0.0000 C   0  0
   17.1399  -16.5198    0.0000 C   0  0
   17.8565  -16.9287    0.0000 F   0  0
   17.1358  -15.6948    0.0000 F   0  0
   17.8498  -16.0998    0.0000 F   0  0
  1  2  2  0
  2  3  1  0
  3  4  2  0
  4  5  1  0
  5  6  2  0
  6  1  1  0
  1  7  1  0
  7  8  1  0
  8  9  1  0
  9 10  1  0
  4 11  1  0
 11 12  1  0
 12 13  1  0
 13 14  1  0
 13 15  1  0
 14 16  1  0
 16 17  1  0
 17 18  1  0
 18 19  1  0
 19 20  1  0
 20 21  1  0
 20 22  2  0
 21 23  1  0
 23 24  2  0
 24 25  1  0
 25 26  2  0
 26 27  1  0
 27 28  2  0
 28 23  1  0
 10 29  1  0
 29 30  1  0
 30 31  1  0
 31 32  1  0
 32 33  1  0
 33 29  1  0
 27 34  1  0
 34 35  1  0
 34 36  1  0
 34 37  1  0
M  END