
  SciTegic06181315362D

 34 36  0  0  0  0            999 V2000
   23.8700   -8.3293    0.0000 C   0  0
   23.8688   -9.1567    0.0000 C   0  0
   24.5836   -9.5696    0.0000 C   0  0
   25.3000   -9.1563    0.0000 C   0  0
   25.2972   -8.3257    0.0000 C   0  0
   24.5818   -7.9165    0.0000 C   0  0
   23.1554   -7.9170    0.0000 O   0  0
   22.4410   -8.3296    0.0000 C   0  0
   22.4412   -9.1547    0.0000 C   0  0
   21.7267   -9.5674    0.0000 O   0  0
   26.0152   -9.5676    0.0000 O   0  0
   26.7291   -9.1539    0.0000 C   0  0
   27.4442   -9.5654    0.0000 C   0  0
   28.1580   -9.1517    0.0000 C   0  0
   27.4455  -10.3904    0.0000 O   0  0
   28.8731   -9.5631    0.0000 N   0  0
   29.5870   -9.1495    0.0000 C   0  0
   30.3021   -9.5609    0.0000 C   0  0
   31.0160   -9.1473    0.0000 N   0  0
   31.7310   -9.5587    0.0000 C   0  0
   32.4449   -9.1451    0.0000 N   0  0
   31.7324  -10.3836    0.0000 O   0  0
   33.1601   -9.5564    0.0000 C   0  0
   33.1576  -10.3805    0.0000 C   0  0
   33.8719  -10.7918    0.0000 C   0  0
   34.5867  -10.3781    0.0000 C   0  0
   34.5828   -9.5488    0.0000 C   0  0
   33.8679   -9.1412    0.0000 C   0  0
   21.0121   -9.1555    0.0000 C   0  0
   21.0230   -8.3296    0.0000 C   0  0
   20.2487   -8.0645    0.0000 C   0  0
   19.7541   -8.7251    0.0000 C   0  0
   20.2252   -9.3987    0.0000 C   0  0
   35.2952   -9.1326    0.0000 Br  0  0
  1  2  2  0
  2  3  1  0
  3  4  2  0
  4  5  1  0
  5  6  2  0
  6  1  1  0
  1  7  1  0
  7  8  1  0
  8  9  1  0
  9 10  1  0
  4 11  1  0
 11 12  1  0
 12 13  1  0
 13 14  1  0
 13 15  1  0
 14 16  1  0
 16 17  1  0
 17 18  1  0
 18 19  1  0
 19 20  1  0
 20 21  1  0
 20 22  2  0
 21 23  1  0
 23 24  2  0
 24 25  1  0
 25 26  2  0
 26 27  1  0
 27 28  2  0
 28 23  1  0
 10 29  1  0
 29 30  1  0
 30 31  1  0
 31 32  1  0
 32 33  1  0
 33 29  1  0
 27 34  1  0
M  END