
  SciTegic12091219282D

 21 23  0  0  0  0            999 V2000
   -1.1958   -6.9042    0.0000 N   0  0
   -1.7875   -5.8167    0.0000 C   0  0
   -1.8208   -7.2500    0.0000 C   0  0
   -2.3625   -6.2375    0.0000 N   0  0
   -2.4458   -6.9000    0.0000 C   0  0
   -1.1583   -6.1792    0.0000 C   0  0
   -1.9958   -5.1417    0.0000 N   0  0
   -0.5958   -7.2667    0.0000 C   0  0
    0.0250   -6.9417    0.0000 C   0  0
   -0.6000   -7.9917    0.0000 C   0  0
   -3.0583   -7.2500    0.0000 C   0  0
    0.0042   -8.3542    0.0000 C   0  0
    0.6292   -7.2917    0.0000 C   0  0
    0.6375   -7.9917    0.0000 C   0  0
   -3.6708   -6.9125    0.0000 O   0  0
   -1.8083   -7.9542    0.0000 C   0  0
   -2.9208   -5.8042    0.0000 C   0  0
   -2.6958   -5.1375    0.0000 C   0  0
   -2.4000   -8.3250    0.0000 C   0  0
   -3.0375   -7.9667    0.0000 C   0  0
    1.2667   -8.3542    0.0000 C   0  0
  2  6  1  0
  3  1  1  0
  4  2  2  0
  5  3  2  0
  6  1  1  0
  7  2  1  0
  8  1  1  0
  9  8  1  0
 10  8  2  0
 11  5  1  0
 12 10  1  0
 13  9  2  0
 14 12  2  0
 15 11  1  0
 16  3  1  0
 17  4  1  0
 18  7  1  0
 19 16  2  0
 20 11  2  0
 21 14  1  0
 17 18  1  0
 19 20  1  0
 14 13  1  0
M  END