
  SciTegic01091215432D

 57 63  0  0  0  0            999 V2000
   -1.7706   -0.7050    0.0000 C   0  0
   -1.0556   -0.2902    0.0000 C   0  0
   -1.0604    0.5398    0.0000 C   0  0
   -1.7763    0.9470    0.0000 C   0  0
   -1.7806    1.7720    0.0000 O   0  0
   -1.0684    2.1883    0.0000 C   0  0
   -0.3517    1.7796    0.0000 C   0  0
    0.3606    2.1958    0.0000 C   0  0
   -0.3473    0.9546    0.0000 O   0  0
    1.0772    1.7871    0.0000 N   0  0
    1.7895    2.2034    0.0000 C   0  0
    2.5061    1.7947    0.0000 C   0  0
    3.2184    2.2110    0.0000 N   0  0
    3.9351    1.8023    0.0000 C   0  0
    4.6473    2.2186    0.0000 C   0  0
    3.9394    0.9773    0.0000 O   0  0
    5.3640    1.8099    0.0000 C   0  0
    5.3684    0.9849    0.0000 C   0  0
    6.0850    0.5762    0.0000 C   0  0
    6.0894   -0.2488    0.0000 C   0  0
    5.3771   -0.6651    0.0000 N   0  0
    5.3815   -1.4901    0.0000 C   0  0
    4.6692   -1.9064    0.0000 O   0  0
    6.0981   -1.8988    0.0000 C   0  0
    6.1025   -2.7238    0.0000 O   0  0
    6.8192   -3.1325    0.0000 C   0  0
    6.8183   -3.9553    0.0000 C   0  0
    7.5341   -4.3639    0.0000 C   0  0
    8.2473   -3.9476    0.0000 C   0  0
    8.2403   -3.1183    0.0000 C   0  0
    7.5239   -2.7134    0.0000 C   0  0
    8.9645   -4.3553    0.0000 C   0  0
    9.6762   -3.9381    0.0000 C   0  0
   10.3585   -4.4019    0.0000 C   0  0
   10.3890   -5.2244    0.0000 C   0  0
   11.1812   -5.4545    0.0000 C   0  0
   11.1392   -4.1203    0.0000 N   0  0
   11.6413   -4.7732    0.0000 C   0  0
   12.4531   -4.6654    0.0000 C   0  0
   11.4491   -3.3597    0.0000 B   0  5
   11.4417   -2.5333    0.0000 F   0  0
   12.2673   -3.2528    0.0000 N   0  3
   12.7688   -3.9023    0.0000 C   0  0
   13.5415   -3.6261    0.0000 C   0  0
   13.5176   -2.8058    0.0000 C   0  0
   12.7301   -2.5752    0.0000 C   0  0
   12.4524   -1.7984    0.0000 C   0  0
   12.9138   -1.1177    0.0000 C   0  0
   12.4096   -0.4647    0.0000 C   0  0
   11.6327   -0.7425    0.0000 C   0  0
   11.6569   -1.5671    0.0000 S   0  0
   10.7292   -2.9458    0.0000 F   0  0
   -2.4859   -0.2940    0.0000 C   0  0
   -2.4826    0.5365    0.0000 C   0  0
   -3.2714    0.7964    0.0000 C   0  0
   -3.7623    0.1264    0.0000 C   0  0
   -3.2768   -0.5474    0.0000 N   0  0
 27 28  1  0
  5  6  1  0
 28 29  2  0
 13 14  1  0
 29 30  1  0
  2  3  1  0
 30 31  2  0
 31 26  1  0
 14 15  1  0
 29 32  1  0
  6  7  1  0
 32 33  2  0
 14 16  2  0
 33 34  1  0
 34 35  2  0
 15 17  1  0
 35 36  1  0
 36 38  2  0
 37 34  1  0
 37 38  1  0
  7  8  1  0
 17 18  1  0
  3  4  2  0
 18 19  1  0
 37 40  1  0
 38 39  1  0
 39 43  2  0
 42 40  1  0
  7  9  1  0
 40 41  1  0
 42 43  1  0
 19 20  1  0
  4 54  1  0
 20 21  1  0
  8 10  1  0
 21 22  1  0
 43 44  1  0
 44 45  2  0
 45 46  1  0
 46 42  2  0
  1  2  2  0
 46 47  1  0
 47 48  2  0
 22 23  2  0
 10 11  1  0
 22 24  1  0
  4  5  1  0
 48 49  1  0
 49 50  2  0
 50 51  1  0
 51 47  1  0
 24 25  1  0
 40 52  1  0
 53 54  2  0
 11 12  1  0
 25 26  1  0
 53  1  1  0
 26 27  2  0
 12 13  1  0
 54 55  1  0
 55 56  2  0
 56 57  1  0
 57 53  1  0
M  CHG  2  40  -1  42   1
M  END