
  SciTegic04201612532D

 18 19  0  0  0  0            999 V2000
    1.2990   -0.7500    0.0000 C   0  0
    1.2990    0.7500    0.0000 C   0  0
    0.0000    1.5000    0.0000 C   0  0
   -1.2990    0.7500    0.0000 C   0  0
   -1.2990   -0.7500    0.0000 C   0  0
    0.0000   -1.5000    0.0000 N   0  0
    2.5987   -1.5004    0.0000 C   0  0
    3.9511   -0.8815    0.0000 C   0  0
    4.9531   -1.9978    0.0000 C   0  0
    4.2010   -3.2956    0.0000 C   0  0
    2.7343   -2.9815    0.0000 S   0  0
   -2.3383   -1.3500    0.0000 O   0  0
   -2.5988    1.5004    0.0000 C   0  0
   -3.6380    2.1004    0.0000 N   0  0
    0.0000    3.0008    0.0000 C   0  0
    1.0388    3.6015    0.0000 F   0  0
   -1.0394    3.6005    0.0000 F   0  0
   -0.0006    4.2008    0.0000 F   0  0
  1  2  2  0
  2  3  1  0
  3  4  2  0
  4  5  1  0
  5  6  2  0
  6  1  1  0
  1  7  1  0
  7  8  2  0
  8  9  1  0
  9 10  2  0
 10 11  1  0
 11  7  1  0
  5 12  1  0
  4 13  1  0
 13 14  3  0
 15 16  1  0
 15 17  1  0
 15 18  1  0
  3 15  1  0
M  END