
  SciTegic01091215432D

 63 69  0  0  0  0            999 V2000
   11.6466  -10.2081    0.0000 C   0  0
   12.3638  -10.6159    0.0000 C   0  0
   13.0755  -10.1987    0.0000 C   0  0
   13.7578  -10.6625    0.0000 C   0  0
   13.7882  -11.4849    0.0000 C   0  0
   14.5805  -11.7151    0.0000 C   0  0
   14.5385  -10.3809    0.0000 N   0  0
   15.0405  -11.0338    0.0000 C   0  0
   15.8524  -10.9260    0.0000 C   0  0
   14.8483   -9.6203    0.0000 B   0  5
   14.8409   -8.7939    0.0000 F   0  0
   15.6666   -9.5134    0.0000 N   0  3
   16.1681  -10.1629    0.0000 C   0  0
   16.9408   -9.8867    0.0000 C   0  0
   16.9169   -9.0664    0.0000 C   0  0
   16.1294   -8.8358    0.0000 C   0  0
   15.8516   -8.0590    0.0000 C   0  0
   16.3131   -7.3783    0.0000 C   0  0
   15.8089   -6.7253    0.0000 C   0  0
   15.0320   -7.0031    0.0000 C   0  0
   15.0562   -7.8277    0.0000 S   0  0
   14.1284   -9.2064    0.0000 F   0  0
   -1.9305   -8.1843    0.0000 C   0  0
   -1.2160   -7.7732    0.0000 C   0  0
   -1.2170   -6.9482    0.0000 C   0  0
   -1.9326   -6.5343    0.0000 C   0  0
   -1.9348   -5.7093    0.0000 O   0  0
   -1.2215   -5.2949    0.0000 C   0  0
   -0.5059   -5.7055    0.0000 C   0  0
    0.2075   -5.2911    0.0000 C   0  0
   -0.5037   -6.5305    0.0000 O   0  0
    0.9230   -5.7017    0.0000 N   0  0
    1.6364   -5.2873    0.0000 C   0  0
    2.3520   -5.6979    0.0000 C   0  0
    2.3542   -6.5229    0.0000 O   0  0
    3.0697   -6.9335    0.0000 C   0  0
    3.7831   -6.5191    0.0000 C   0  0
    3.7809   -5.6941    0.0000 O   0  0
    4.4943   -5.2797    0.0000 C   0  0
    5.2098   -5.6903    0.0000 C   0  0
    5.2120   -6.5153    0.0000 N   0  0
    5.9276   -6.9259    0.0000 C   0  0
    6.6410   -6.5115    0.0000 C   0  0
    5.9298   -7.7509    0.0000 O   0  0
    6.6388   -5.6865    0.0000 C   0  0
    7.3522   -5.2721    0.0000 C   0  0
    8.0677   -5.6826    0.0000 C   0  0
    8.0699   -6.5076    0.0000 C   0  0
    8.7855   -6.9182    0.0000 N   0  0
    8.7877   -7.7432    0.0000 C   0  0
    9.5033   -8.1538    0.0000 C   0  0
    8.0743   -8.1576    0.0000 O   0  0
    9.5055   -8.9788    0.0000 O   0  0
   10.2210   -9.3894    0.0000 C   0  0
   10.2203  -10.2136    0.0000 C   0  0
   10.9350  -10.6241    0.0000 C   0  0
   11.6445   -9.3804    0.0000 C   0  0
   10.9292   -8.9736    0.0000 C   0  0
   -2.6416   -7.7750    0.0000 C   0  0
   -2.6472   -6.9490    0.0000 C   0  0
   -3.4345   -6.6991    0.0000 C   0  0
   -3.9155   -7.3706    0.0000 C   0  0
   -3.4254   -8.0355    0.0000 N   0  0
  7  8  1  0
 29 30  1  0
  1  2  1  0
 29 31  1  0
 13 14  1  0
 30 32  1  0
 14 15  2  0
 32 33  1  0
 15 16  1  0
 33 34  1  0
 16 12  2  0
 34 35  1  0
  3  4  1  0
 35 36  1  0
 16 17  1  0
 36 37  1  0
 17 18  2  0
 37 38  1  0
  4  5  2  0
 38 39  1  0
 39 40  1  0
  7 10  1  0
 40 41  1  0
  8  9  1  0
 41 42  1  0
 18 19  1  0
 42 43  1  0
 19 20  2  0
 42 44  2  0
 20 21  1  0
 43 45  1  0
 21 17  1  0
 45 46  1  0
  9 13  2  0
 46 47  1  0
 10 22  1  0
 47 48  1  0
 12 10  1  0
 48 49  1  0
  2  3  2  0
 49 50  1  0
 10 11  1  0
 50 51  1  0
 12 13  1  0
 50 52  2  0
 60 26  1  0
 51 53  1  0
 59 23  1  0
 53 54  1  0
 23 24  2  0
 54 55  2  0
 24 25  1  0
 55 56  1  0
 56  1  2  0
 25 26  2  0
  1 57  1  0
  5  6  1  0
 57 58  2  0
 58 54  1  0
 59 60  2  0
 26 27  1  0
  6  8  2  0
 27 28  1  0
  7  4  1  0
 28 29  1  0
 60 61  1  0
 61 62  2  0
 62 63  1  0
 63 59  1  0
M  CHG  2  10  -1  12   1
M  END