
  SciTegic12201612072D

 29 31  0  0  0  0            999 V2000
   -2.6111    0.7486    0.0000 C   0  0
   -2.6111   -0.7486    0.0000 C   0  0
   -1.2964   -1.4973    0.0000 C   0  0
   -1.2964    1.4973    0.0000 C   0  0
    0.0000    0.7486    0.0000 C   0  0
    0.0000   -0.7486    0.0000 C   0  0
    1.2964   -1.4973    0.0000 N   0  0
    2.5929   -0.7486    0.0000 C   0  0
    2.5929    0.7486    0.0000 C   0  0
    1.2964    1.4973    0.0000 C   0  0
   -3.9086    1.5029    0.0000 C   0  0
   -3.9097    3.0028    0.0000 C   0  0
   -5.2093    3.7519    0.0000 C   0  0
   -6.5078    3.0010    0.0000 C   0  0
   -6.5067    1.5010    0.0000 C   0  0
   -5.2071    0.7519    0.0000 C   0  0
   -2.8709    3.6035    0.0000 C   0  0
    3.6321   -1.3486    0.0000 N   0  0
    3.8911    1.5017    0.0000 C   0  0
    3.8890    3.0026    0.0000 C   0  0
    5.1872    3.7556    0.0000 C   0  0
    5.1850    5.2565    0.0000 N   0  0
    6.2274    3.1575    0.0000 O   0  0
    6.4832    6.0096    0.0000 C   0  0
    6.4811    7.5104    0.0000 C   0  0
    7.7793    8.2635    0.0000 C   0  0
    7.7776    9.4635    0.0000 C   0  0
    8.8176    8.8651    0.0000 C   0  0
    8.8196    7.6653    0.0000 C   0  0
  1  2  2  0
  2  3  1  0
  3  6  2  0
  5  4  2  0
  4  1  1  0
  5  6  1  0
  6  7  1  0
  7  8  2  0
  8  9  1  0
  9 10  2  0
 10  5  1  0
 11 12  2  0
 12 13  1  0
 13 14  2  0
 14 15  1  0
 15 16  2  0
 16 11  1  0
  1 11  1  0
 12 17  1  0
  8 18  1  0
  9 19  1  0
 19 20  1  0
 20 21  1  0
 21 22  1  0
 21 23  2  0
 22 24  1  0
 24 25  1  0
 25 26  1  0
 26 27  1  0
 26 28  1  0
 26 29  1  0
M  END