
  SciTegic02271514372D

 62 65  0  0  0  0            999 V2000
   15.3264   -8.7726    0.0000 O   0  0
   16.7520   -5.4758    0.0000 C   0  0
   15.3250   -6.2974    0.0000 C   0  0
   13.1804   -7.5329    0.0000 C   0  0
   15.3264   -7.9476    0.0000 C   0  0
    6.7504   -8.7726    0.0000 O   0  0
   12.4650   -7.9476    0.0000 C   0  0  2  0  0  0
    9.6118   -7.9476    0.0000 N   0  0
    4.6092   -7.5342    0.0000 C   0  0
    8.8965   -7.5329    0.0000 C   0  0
    8.1769   -8.7726    0.0000 C   0  0
   11.7482   -6.7078    0.0000 C   0  0
   11.7496   -7.5329    0.0000 N   0  0
   15.3225   -5.4777    0.0000 C   0  0
   14.6111   -7.5329    0.0000 C   0  0  1  0  0  0
    8.8951  -10.0082    0.0000 C   0  0
   13.1790  -10.0082    0.0000 C   0  0
   11.0384   -8.7726    0.0000 O   0  0
    3.8958   -7.9500    0.0000 O   0  0
   16.0376   -7.5329    0.0000 O   0  0
   12.4650   -8.7726    0.0000 C   0  0
   10.3231   -6.7078    0.0000 C   0  0
    9.6090   -8.7726    0.0000 C   0  0
   16.7516   -6.3018    0.0000 C   0  0
   13.8929   -8.7726    0.0000 C   0  0
   16.0380   -6.7116    0.0000 C   0  0
    8.1769   -7.9476    0.0000 C   0  0  1  0  0  0
   11.0370   -5.4723    0.0000 C   0  0
    8.8965   -6.7078    0.0000 O   0  0
    3.1812   -7.5366    0.0000 C   0  0
    8.8951   -9.1831    0.0000 C   0  0
    4.6078   -6.7091    0.0000 O   0  0
    6.7504   -7.9476    0.0000 C   0  0
   13.8957   -7.9476    0.0000 N   0  0
    2.4637   -7.9524    0.0000 C   0  0
   12.4636   -5.4723    0.0000 C   0  0
   16.0330   -5.0614    0.0000 C   0  0
   10.3231   -7.5329    0.0000 C   0  0  1  0  0  0
   13.1804   -6.7078    0.0000 O   0  0
   11.0384   -7.9476    0.0000 C   0  0
   11.0370   -6.2974    0.0000 C   0  0
    2.4595   -7.1224    0.0000 C   0  0
    7.4616   -7.5329    0.0000 N   0  0
   14.6111   -6.7078    0.0000 C   0  0
    3.1798   -6.7115    0.0000 C   0  0
   12.4636   -6.2974    0.0000 C   0  0
    5.3238   -7.9476    0.0000 N   0  0
    6.0350   -7.5329    0.0000 C   0  0  1  0  0  0
    6.0350   -6.7078    0.0000 C   0  0
   13.1790   -9.1831    0.0000 C   0  0
   11.7482   -5.0576    0.0000 C   0  0
    6.7463   -6.2972    0.0000 C   0  0
    7.4908   -6.6320    0.0000 C   0  0
    8.0412   -6.0210    0.0000 N   0  0
    6.8250   -5.4828    0.0000 C   0  0
    7.6281   -5.3120    0.0000 C   0  0
    7.8803   -4.5326    0.0000 C   0  0
    7.3302   -3.9232    0.0000 C   0  0
    6.5249   -4.0986    0.0000 C   0  0
    6.2766   -4.8778    0.0000 C   0  0
    8.8619   -6.1056    0.0000 C   0  0
    9.3455   -5.4373    0.0000 O   0  0
  5 20  1  0
  2 37  1  0
 50 17  1  0
 31 16  1  0
 28 41  2  0
 44  3  1  0
 40 13  1  0
 33  6  2  0
 46 36  1  0
 27 10  1  0
 30 45  1  0
 33 43  1  0
 30 35  1  0
 31 23  1  0
  7  4  1  0
 24  2  2  0
 13  7  1  0
 30 42  1  0
 50 25  1  0
  7 21  1  1
  9 19  1  0
  8 38  1  0
 34 15  1  0
 19 30  1  0
 11 31  1  0
 12 46  2  0
 14  3  1  0
 15  5  1  0
 15 44  1  1
 27 11  1  1
 26 24  1  0
  4 34  1  0
 10  8  1  0
 41 12  1  0
  4 39  2  0
 37 14  2  0
  3 26  2  0
 38 22  1  1
 36 51  2  0
 22 41  1  0
 10 29  2  0
  9 32  2  0
 21 50  1  0
 48 49  1  0
 38 40  1  0
 47 48  1  0
 48 33  1  1
 43 27  1  0
 40 18  2  0
 51 28  1  0
 47  9  1  0
  5  1  2  0
 49 52  1  0
 53 54  1  0
 52 53  2  0
 54 56  1  0
 55 52  1  0
 55 56  2  0
 56 57  1  0
 57 58  2  0
 58 59  1  0
 59 60  2  0
 60 55  1  0
 54 61  1  0
 61 62  2  0
M  END