
  SciTegic12091219312D

 29 31  0  0  0  0            999 V2000
    0.1167    0.0708    0.0000 C   0  0
    0.8292    0.4833    0.0000 C   0  0
    0.1167   -0.7542    0.0000 C   0  0
   -0.5958    0.4833    0.0000 C   0  0
    1.5417    0.0625    0.0000 N   0  0
   -0.5958   -1.1667    0.0000 C   0  0
    0.8375    1.3000    0.0000 N   0  0
   -1.3000    0.0708    0.0000 C   0  0
   -1.3000   -0.7542    0.0000 C   0  0
    3.6917    1.2958    0.0000 C   0  0
    0.8250   -1.1750    0.0000 N   0  0
    4.4042    0.8833    0.0000 C   0  0
    1.5417   -0.7625    0.0000 C   0  0
    1.5542    1.7125    0.0000 C   0  0
    2.9792    1.7083    0.0000 C   0  0
    2.2542    1.3000    0.0000 C   0  0
   -2.0208    0.4833    0.0000 O   0  0
   -2.0208   -1.1750    0.0000 O   0  0
    2.2542    2.9458    0.0000 C   0  0
   -2.7250   -3.2375    0.0000 O   0  0
   -4.1625    0.0708    0.0000 O   0  0
    1.5500    2.5375    0.0000 C   0  0
    2.9792    2.5333    0.0000 C   0  0
   -2.0208   -2.0000    0.0000 C   0  0
   -2.7375    0.0708    0.0000 C   0  0
   -2.7333   -2.4125    0.0000 C   0  0
   -3.4500    0.4833    0.0000 C   0  0
   -4.1625   -0.7542    0.0000 C   0  0
   -2.0125   -3.6417    0.0000 C   0  0
  2  1  1  0
  3  1  2  0
  4  1  1  0
  5  2  2  0
  6  3  1  0
  7  2  1  0
  8  4  2  0
  9  8  1  0
 10 15  1  0
 11  3  1  0
 12 10  3  0
 13 11  2  0
 14  7  1  0
 15 16  1  0
 16 14  2  0
 17  8  1  0
 18  9  1  0
 19 22  2  0
 20 26  1  0
 21 27  1  0
 22 14  1  0
 23 19  1  0
 24 18  1  0
 25 17  1  0
 26 24  1  0
 27 25  1  0
 28 21  1  0
 29 20  1  0
  6  9  2  0
  5 13  1  0
 15 23  2  0
M  END