
  SciTegic01111613442D

 11 11  0  0  0  0            999 V2000
    1.2990   -0.7500    0.0000 C   0  0
    0.0000   -1.5000    0.0000 C   0  0
   -1.2990   -0.7500    0.0000 C   0  0
   -1.2990    0.7500    0.0000 C   0  0
    0.0000    1.5000    0.0000 C   0  0
    1.2990    0.7500    0.0000 C   0  0
    2.5988    1.5004    0.0000 S   0  0
    3.6378    0.9001    0.0000 N   0  0
    2.5995    2.7004    0.0000 O   0  0
    3.6383    2.0999    0.0000 O   0  0
   -2.3383   -1.3500    0.0000 C   0  0
  5  6  2  0
  6  1  1  0
  1  2  2  0
  6  7  1  0
  3  4  2  0
  7  8  1  0
  7  9  2  0
  4  5  1  0
  7 10  2  0
  2  3  1  0
  3 11  1  0
M  END