
  SciTegic01091215432D

 64 70  0  0  0  0            999 V2000
    7.1677  -13.5496    0.0000 N   0  0
    7.8843  -13.9583    0.0000 C   0  0
    8.5966  -13.5420    0.0000 C   0  0
    7.8887  -14.7833    0.0000 O   0  0
    9.3132  -13.9507    0.0000 C   0  0
    9.3176  -14.7757    0.0000 C   0  0
   10.0343  -15.1844    0.0000 C   0  0
   10.0386  -16.0094    0.0000 C   0  0
    9.3264  -16.4257    0.0000 N   0  0
    9.3307  -17.2507    0.0000 C   0  0
    8.6185  -17.6670    0.0000 O   0  0
   10.0474  -17.6594    0.0000 C   0  0
   10.0518  -18.4844    0.0000 O   0  0
   10.7684  -18.8931    0.0000 C   0  0
   10.7675  -19.7159    0.0000 C   0  0
   11.4833  -20.1245    0.0000 C   0  0
   12.1966  -19.7081    0.0000 C   0  0
   12.1895  -18.8789    0.0000 C   0  0
   11.4732  -18.4740    0.0000 C   0  0
   12.9138  -20.1159    0.0000 C   0  0
   13.6255  -19.6987    0.0000 C   0  0
   14.3078  -20.1625    0.0000 C   0  0
   14.3382  -20.9849    0.0000 C   0  0
   15.1305  -21.2151    0.0000 C   0  0
   15.0885  -19.8809    0.0000 N   0  0
   15.5905  -20.5338    0.0000 C   0  0
   16.4024  -20.4260    0.0000 C   0  0
   15.3983  -19.1203    0.0000 B   0  5
   15.3909  -18.2939    0.0000 F   0  0
   16.2166  -19.0134    0.0000 N   0  3
   16.7181  -19.6629    0.0000 C   0  0
   17.4908  -19.3867    0.0000 C   0  0
   17.4669  -18.5664    0.0000 C   0  0
   16.6794  -18.3358    0.0000 C   0  0
   16.4016  -17.5590    0.0000 C   0  0
   16.8631  -16.8783    0.0000 C   0  0
   16.3589  -16.2253    0.0000 C   0  0
   15.5820  -16.5031    0.0000 C   0  0
   15.6062  -17.3277    0.0000 S   0  0
   14.6784  -18.7064    0.0000 F   0  0
   -4.2514  -15.2541    0.0000 C   0  0
   -4.2526  -16.0815    0.0000 C   0  0
   -3.5378  -16.4944    0.0000 C   0  0
   -3.5396  -14.8414    0.0000 C   0  0
   -2.8242  -15.2505    0.0000 C   0  0
   -2.8234  -16.0773    0.0000 C   0  0
   -2.1081  -16.4883    0.0000 C   0  0
   -1.3931  -16.0735    0.0000 C   0  0
   -1.3979  -15.2436    0.0000 C   0  0
   -2.1138  -14.8363    0.0000 C   0  0
   -2.1181  -14.0114    0.0000 O   0  0
   -1.4059  -13.5951    0.0000 C   0  0
   -0.6892  -14.0038    0.0000 C   0  0  2  0  0  0
    0.0231  -13.5875    0.0000 C   0  0
   -0.6848  -14.8288    0.0000 O   0  0
    0.7397  -13.9962    0.0000 N   0  0
    1.4520  -13.5799    0.0000 C   0  0
    2.1686  -13.9886    0.0000 C   0  0
    2.8809  -13.5723    0.0000 C   0  0
    3.5976  -13.9810    0.0000 C   0  0
    4.3098  -13.5648    0.0000 C   0  0
    5.0265  -13.9735    0.0000 C   0  0
    5.7388  -13.5572    0.0000 C   0  0
    6.4554  -13.9659    0.0000 C   0  0
  7  8  1  0
 15 16  1  0
 16 17  2  0
 31 32  1  0
 32 33  2  0
 33 34  1  0
 34 30  2  0
  8  9  1  0
 34 35  1  0
 35 36  2  0
 17 18  1  0
  3  5  1  0
 18 19  2  0
 19 14  1  0
 36 37  1  0
 37 38  2  0
 38 39  1  0
 39 35  1  0
  9 10  1  0
 28 40  1  0
 17 20  1  0
  2  3  1  0
 41 42  1  0
 20 21  2  0
 42 43  2  0
 43 46  1  0
 10 11  2  0
 45 44  1  0
 44 41  2  0
 21 22  1  0
 22 23  2  0
 45 46  2  0
  5  6  1  0
 46 47  1  0
 10 12  1  0
 47 48  2  0
 23 24  1  0
 48 49  1  0
 24 26  2  0
 49 50  2  0
 50 45  1  0
 25 22  1  0
 50 51  1  0
 25 26  1  0
 51 52  1  0
  1  2  1  0
 52 53  1  0
 12 13  1  0
 53 54  1  0
  6  7  1  0
 53 55  1  6
 13 14  1  0
 54 56  1  0
 25 28  1  0
 56 57  1  0
 26 27  1  0
 57 58  1  0
 27 31  2  0
 58 59  1  0
 30 28  1  0
 59 60  1  0
  2  4  2  0
 60 61  1  0
 28 29  1  0
 61 62  1  0
 30 31  1  0
 62 63  1  0
 14 15  2  0
 63 64  1  0
 64  1  1  0
M  CHG  2  28  -1  30   1
M  END