
  SciTegic06231415402D

 17 17  0  0  1  0            999 V2000
   -7.3955   -3.4768    0.0000 C   0  0
   -8.1100   -3.8893    0.0000 C   0  0
   -8.1100   -4.7143    0.0000 C   0  0
   -7.3955   -5.1268    0.0000 C   0  0
   -6.6810   -4.7143    0.0000 C   0  0
   -6.6810   -3.8893    0.0000 C   0  0
   -8.8245   -5.1268    0.0000 O   0  0
   -5.9666   -3.4768    0.0000 O   0  0
   -5.2521   -3.8893    0.0000 C   0  0
   -4.5376   -3.4768    0.0000 C   0  0  2  0  0  0
   -3.8232   -3.8893    0.0000 C   0  0
   -4.5376   -2.6518    0.0000 O   0  0
   -3.1087   -3.4768    0.0000 N   0  0
   -2.3942   -3.8892    0.0000 C   0  0
   -1.6797   -3.4767    0.0000 C   0  0
   -2.3942   -4.7142    0.0000 C   0  0
   -3.8231   -3.0643    0.0000 H   0  0
  1  2  1  0
  1  6  2  0
  2  3  2  0
  3  4  1  0
  4  5  2  0
  5  6  1  0
  3  7  1  0
  6  8  1  0
  8  9  1  0
  9 10  1  0
 10 11  1  0
 10 12  1  1
 11 13  1  0
 13 14  1  0
 14 15  1  0
 14 16  1  0
 10 17  1  6
M  END