
  SciTegic06181315362D

 34 36  0  0  0  0            999 V2000
    5.1485  -20.4456    0.0000 C   0  0
    5.1474  -21.2729    0.0000 C   0  0
    5.8621  -21.6858    0.0000 C   0  0
    6.5786  -21.2724    0.0000 C   0  0
    6.5758  -20.4420    0.0000 C   0  0
    5.8603  -20.0328    0.0000 C   0  0
    4.4339  -20.0332    0.0000 O   0  0
    3.7196  -20.4459    0.0000 C   0  0
    3.7198  -21.2709    0.0000 C   0  0
    3.0054  -21.6836    0.0000 O   0  0
    7.2937  -21.6838    0.0000 O   0  0
    8.0075  -21.2702    0.0000 C   0  0
    8.7227  -21.6816    0.0000 C   0  0
    9.4364  -21.2680    0.0000 C   0  0
    8.7239  -22.5066    0.0000 O   0  0
   10.1516  -21.6794    0.0000 N   0  0
   10.8653  -21.2657    0.0000 C   0  0
   11.5805  -21.6771    0.0000 C   0  0
   12.2943  -21.2635    0.0000 N   0  0
   13.0094  -21.6748    0.0000 C   0  0
   13.7232  -21.2612    0.0000 N   0  0
   13.0107  -22.4998    0.0000 O   0  0
   14.4383  -21.6726    0.0000 C   0  0
   14.4359  -22.4967    0.0000 C   0  0
   15.1501  -22.9080    0.0000 C   0  0
   15.8649  -22.4943    0.0000 C   0  0
   15.8609  -21.6650    0.0000 C   0  0
   15.1461  -21.2575    0.0000 C   0  0
    2.2908  -21.2716    0.0000 C   0  0
    2.3017  -20.4459    0.0000 C   0  0
    1.5273  -20.1808    0.0000 C   0  0
    1.0328  -20.8413    0.0000 C   0  0
    1.5039  -21.5149    0.0000 C   0  0
   16.5806  -22.9047    0.0000 C   0  0
  1  2  2  0
  2  3  1  0
  3  4  2  0
  4  5  1  0
  5  6  2  0
  6  1  1  0
  1  7  1  0
  7  8  1  0
  8  9  1  0
  9 10  1  0
  4 11  1  0
 11 12  1  0
 12 13  1  0
 13 14  1  0
 13 15  1  0
 14 16  1  0
 16 17  1  0
 17 18  1  0
 18 19  1  0
 19 20  1  0
 20 21  1  0
 20 22  2  0
 21 23  1  0
 23 24  2  0
 24 25  1  0
 25 26  2  0
 26 27  1  0
 27 28  2  0
 28 23  1  0
 10 29  1  0
 29 30  1  0
 30 31  1  0
 31 32  1  0
 32 33  1  0
 33 29  1  0
 26 34  1  0
M  END