
  SciTegic12231509382D

 18 19  0  0  0  0            999 V2000
    1.9792    0.6750    0.0000 N   0  3
    2.0542   -0.1042    0.0000 C   0  0
    2.7042    0.9958    0.0000 C   0  0
   -0.7625    0.6750    0.0000 N   0  0
    0.6000    0.6750    0.0000 C   0  0
   -0.0708    1.0708    0.0000 C   0  0
    3.2417    0.4083    0.0000 S   0  0
    1.2875    1.0708    0.0000 C   0  0
    2.8500   -0.2667    0.0000 C   0  0
   -0.0708   -0.5125    0.0000 N   0  0
   -0.7625   -0.1042    0.0000 C   0  0
    0.6000   -0.1042    0.0000 C   0  0
   -0.0708    1.8708    0.0000 N   0  0
    3.1667   -1.0000    0.0000 C   0  0
    1.4750   -0.6417    0.0000 C   0  0
    4.2792   -1.8125    0.0000 O   0  0
   -1.4583   -0.5125    0.0000 C   0  0
    3.9667   -1.0792    0.0000 C   0  0
  2  1  1  0
  3  1  2  0
  4  6  2  0
  5  8  1  0
  6  5  1  0
  7  3  1  0
  8  1  1  0
  9  2  2  0
 10 12  1  0
 11 10  2  0
 12  5  2  0
 13  6  1  0
 14  9  1  0
 15  2  1  0
 16 18  1  0
 17 11  1  0
 18 14  1  0
  9  7  1  0
  4 11  1  0
M  CHG  1   1   1
M  END