
  SciTegic12091219292D

 21 21  0  0  0  0            999 V2000
    7.4917   -9.4167    0.0000 C   0  0
    7.4917   -8.7083    0.0000 O   0  0
    1.3625  -10.8458    0.0000 N   0  0
    3.8167  -10.8458    0.0000 O   0  0
    2.5875  -10.8458    0.0000 C   0  0
    4.4292  -10.4917    0.0000 C   0  0
    6.8792   -9.7750    0.0000 C   0  0
    1.9750  -10.4917    0.0000 C   0  0
    5.6542   -9.7792    0.0000 C   0  0
    3.2000  -10.4917    0.0000 C   0  0
    8.1083   -9.7708    0.0000 O   0  0
    6.2667   -9.4208    0.0000 C   0  0
    5.0417  -10.8458    0.0000 C   0  0
    4.4292   -9.7792    0.0000 C   0  0
    5.6542  -10.4917    0.0000 C   0  0
    5.0417   -9.4250    0.0000 C   0  0
    2.5875  -11.5542    0.0000 O   0  0
    0.7500  -10.4917    0.0000 C   0  0
    8.7208   -9.4125    0.0000 C   0  0
    0.1333  -10.8417    0.0000 C   0  0
    0.7500   -9.7833    0.0000 C   0  0
  2  1  2  0
  3  8  1  0
  4  6  1  0
  5 10  1  0
  6 14  2  0
  7  1  1  0
  8  5  1  0
  9 12  1  0
 10  4  1  0
 11  1  1  0
 12  7  1  0
 13 15  2  0
 14 16  1  0
 15  9  1  0
 16  9  2  0
 17  5  1  0
 18  3  1  0
 19 11  1  0
 20 18  1  0
 21 18  1  0
 13  6  1  0
M  END