
  SciTegic12091219312D

 20 22  0  0  0  0            999 V2000
    3.5625   -5.6417    0.0000 C   0  0
    2.9125   -5.3292    0.0000 C   0  0
    4.2042   -5.3167    0.0000 C   0  0
    3.2042   -4.0667    0.0000 C   0  0
    3.9042   -4.0667    0.0000 C   0  0
    2.7625   -4.6292    0.0000 C   0  0
    4.3500   -4.6292    0.0000 C   0  0
    4.8250   -7.7375    0.0000 N   0  0
    3.5667   -6.3417    0.0000 C   0  0
    2.3917   -5.8042    0.0000 C   0  0
    4.7167   -5.7917    0.0000 C   0  0
    2.0667   -4.4167    0.0000 C   0  0
    5.0375   -4.4167    0.0000 C   0  0
    4.2000   -7.3917    0.0000 C   0  0
    4.8167   -8.4542    0.0000 C   0  0
    4.1917   -6.6792    0.0000 C   0  0
    1.7167   -5.6000    0.0000 C   0  0
    5.3875   -5.5917    0.0000 C   0  0
    5.5500   -4.9125    0.0000 C   0  0
    1.5542   -4.9042    0.0000 C   0  0
  2  1  1  0
  3  1  1  0
  4  6  1  0
  5  7  1  0
  6  2  2  0
  7  3  2  0
  8 14  1  0
  9  1  1  0
 10  2  1  0
 11  3  1  0
 12  6  1  0
 13  7  1  0
 14 16  1  0
 15  8  1  0
 16  9  1  0
 17 10  2  0
 18 11  2  0
 19 18  1  0
 20 17  1  0
  5  4  2  0
 19 13  2  0
 20 12  2  0
M  END