
  SciTegic11161115462D

 20 21  0  0  0  0            999 V2000
    0.6236   -5.1541    0.0000 C   0  0
    0.6224   -5.9815    0.0000 C   0  0
    1.3372   -6.3944    0.0000 C   0  0
    1.3354   -4.7414    0.0000 C   0  0
    2.0508   -5.1505    0.0000 C   0  0
    2.0496   -5.9790    0.0000 C   0  0
    2.7626   -6.3919    0.0000 O   0  0
    3.4813   -5.9810    0.0000 B   0  5
    3.4824   -5.1525    0.0000 O   0  0
    2.7649   -4.7350    0.0000 C   0  0
    3.6917   -6.7750    0.0000 O   0  0
    4.2750   -5.7625    0.0000 O   0  0
   -0.0910   -4.7418    0.0000 C   0  0  1  0  0  0
   -0.0912   -3.9168    0.0000 O   0  0
   -0.8054   -5.1545    0.0000 C   0  0
   -1.5199   -4.7421    0.0000 N   0  0
   -2.2343   -5.1548    0.0000 C   0  0
   -2.9489   -4.7425    0.0000 C   0  0
   -2.2341   -5.9798    0.0000 C   0  0
   -2.9542   -5.5625    0.0000 C   0  0
  8  9  1  0
  9 10  1  0
  5  6  1  0
  8 11  1  0
  8 12  1  0
  2  3  1  0
  1 13  1  0
  3  6  2  0
 13 14  1  6
  1  2  2  0
 13 15  1  0
  5  4  2  0
 15 16  1  0
  4  1  1  0
 16 17  1  0
  5 10  1  0
 17 18  1  0
  6  7  1  0
 17 19  1  0
  7  8  1  0
 17 20  1  0
M  CHG  1   8  -1
M  END