
  SciTegic12091219342D

 12 12  0  0  0  0            999 V2000
    3.4625   -7.1917    0.0000 C   0  0
    2.8417   -7.5417    0.0000 C   0  0
    4.7000   -7.2042    0.0000 N   0  0
    5.3042   -6.8667    0.0000 C   0  0
    4.0792   -6.8417    0.0000 C   0  0
    5.9250   -7.2167    0.0000 C   0  0
    4.6917   -7.9167    0.0000 C   0  0
    6.5417   -6.8792    0.0000 C   0  0
    5.9125   -7.9292    0.0000 C   0  0
    6.5250   -8.2917    0.0000 C   0  0
    7.1542   -7.2417    0.0000 C   0  0
    7.1417   -7.9417    0.0000 C   0  0
  2  1  3  0
  3  5  1  0
  4  3  1  0
  5  1  1  0
  6  4  1  0
  7  3  1  0
  8  6  1  0
  9  6  2  0
 10  9  1  0
 11  8  2  0
 12 11  1  0
 12 10  2  0
M  END