
  SciTegic12091219352D

 30 31  0  0  1  0            999 V2000
    1.5417   -0.6125    0.0000 S   0  0
    2.7917   -0.6292    0.0000 C   0  0  2  0  0  0
    2.1667   -0.2750    0.0000 N   0  0
    3.4042   -0.2750    0.0000 C   0  0
    1.8917   -1.2250    0.0000 O   0  0
    1.1875   -1.2250    0.0000 O   0  0
    2.7917   -1.3417    0.0000 C   0  0
    9.5167   -1.6875    0.0000 N   0  0
    3.4042    0.4458    0.0000 O   0  0
    3.4042   -1.7000    0.0000 C   0  0
    0.9292   -0.2667    0.0000 C   0  0
    4.0167   -0.6292    0.0000 O   0  0
    4.6250   -2.4042    0.0000 C   0  0
    4.0167   -1.3375    0.0000 C   0  0
    3.4042   -2.4042    0.0000 C   0  0
    4.0167   -2.7625    0.0000 C   0  0
    4.6250   -1.6875    0.0000 C   0  0
    5.2292   -2.7625    0.0000 O   0  0
    8.9125   -1.3375    0.0000 C   0  0
    9.5167   -2.4042    0.0000 C   0  0
    8.2917   -2.4042    0.0000 C   0  0
    5.8417   -2.4042    0.0000 C   0  0
    7.6917   -2.7625    0.0000 C   0  0
    0.3292   -0.6250    0.0000 C   0  0
    8.2917   -1.6875    0.0000 C   0  0
    8.9125   -2.7625    0.0000 C   0  0
    6.4542   -2.7625    0.0000 C   0  0
    7.0792   -2.4042    0.0000 C   0  0
   -0.2833   -0.2667    0.0000 C   0  0
   -0.9083   -0.6250    0.0000 C   0  0
  2  3  1  0
  3  1  1  0
  4  2  1  0
  5  1  2  0
  6  1  2  0
  2  7  1  6
  8 19  1  0
  9  4  2  0
 10  7  1  0
 11  1  1  0
 12  4  1  0
 13 17  2  0
 14 10  2  0
 15 10  1  0
 16 15  2  0
 17 14  1  0
 18 13  1  0
 19 25  1  0
 20 26  1  0
 21 23  1  0
 22 18  1  0
 23 28  1  0
 24 11  1  0
 25 21  1  0
 26 21  1  0
 27 22  1  0
 28 27  1  0
 29 24  1  0
 30 29  1  0
 16 13  1  0
 20  8  1  0
M  END