
  SciTegic01091215432D

 58 64  0  0  0  0            999 V2000
   -4.9973    1.3000    0.0000 C   0  0
   -4.9984    0.4727    0.0000 C   0  0
   -4.2836    0.0598    0.0000 C   0  0
   -4.2854    1.7128    0.0000 C   0  0
   -3.5700    1.3037    0.0000 C   0  0
   -3.5693    0.4768    0.0000 C   0  0
   -2.8540    0.0659    0.0000 C   0  0
   -2.1389    0.4806    0.0000 C   0  0
   -2.1437    1.3106    0.0000 C   0  0
   -2.8596    1.7178    0.0000 C   0  0
   -2.8640    2.5428    0.0000 O   0  0
   -2.1517    2.9591    0.0000 C   0  0
   -1.4350    2.5504    0.0000 C   0  0  2  0  0  0
   -0.7228    2.9667    0.0000 C   0  0
   -1.4307    1.7254    0.0000 O   0  0
   -0.0061    2.5580    0.0000 N   0  0
    0.7062    2.9743    0.0000 C   0  0
    1.4228    2.5655    0.0000 C   0  0
    2.1351    2.9818    0.0000 N   0  0
    2.8517    2.5731    0.0000 C   0  0
    3.5640    2.9894    0.0000 C   0  0
    2.8561    1.7481    0.0000 O   0  0
    4.2806    2.5807    0.0000 C   0  0
    4.2850    1.7557    0.0000 C   0  0
    5.0017    1.3470    0.0000 C   0  0
    5.0060    0.5220    0.0000 C   0  0
    4.2938    0.1057    0.0000 N   0  0
    4.2982   -0.7192    0.0000 C   0  0
    3.5859   -1.1355    0.0000 O   0  0
    5.0148   -1.1280    0.0000 C   0  0
    5.0192   -1.9529    0.0000 O   0  0
    5.7358   -2.3616    0.0000 C   0  0
    5.7349   -3.1844    0.0000 C   0  0
    6.4507   -3.5931    0.0000 C   0  0
    7.1640   -3.1767    0.0000 C   0  0
    7.1569   -2.3475    0.0000 C   0  0
    6.4406   -1.9426    0.0000 C   0  0
    7.8812   -3.5845    0.0000 C   0  0
    8.5929   -3.1672    0.0000 C   0  0
    9.2752   -3.6311    0.0000 C   0  0
    9.3056   -4.4535    0.0000 C   0  0
   10.0979   -4.6837    0.0000 C   0  0
   10.0559   -3.3495    0.0000 N   0  0
   10.5579   -4.0024    0.0000 C   0  0
   11.3698   -3.8946    0.0000 C   0  0
   10.3657   -2.5889    0.0000 B   0  5
   10.3583   -1.7625    0.0000 F   0  0
   11.1840   -2.4820    0.0000 N   0  3
   11.6855   -3.1315    0.0000 C   0  0
   12.4582   -2.8553    0.0000 C   0  0
   12.4343   -2.0350    0.0000 C   0  0
   11.6468   -1.8044    0.0000 C   0  0
   11.3691   -1.0276    0.0000 C   0  0
   11.8305   -0.3469    0.0000 C   0  0
   11.3263    0.3061    0.0000 C   0  0
   10.5494    0.0284    0.0000 C   0  0
   10.5736   -0.7962    0.0000 S   0  0
    9.6458   -2.1750    0.0000 F   0  0
  3  6  1  0
 28 29  2  0
 13 14  1  0
 28 30  1  0
  6  7  1  0
 30 31  1  0
 13 15  1  6
 31 32  1  0
  1  2  1  0
 32 33  2  0
 14 16  1  0
 33 34  1  0
  7  8  2  0
 34 35  2  0
 16 17  1  0
 35 36  1  0
  5  4  1  0
 36 37  2  0
 37 32  1  0
 17 18  1  0
 35 38  1  0
  8  9  1  0
 38 39  2  0
 18 19  1  0
 39 40  1  0
 40 41  2  0
  4  1  2  0
 19 20  1  0
 41 42  1  0
 42 44  2  0
 43 40  1  0
 43 44  1  0
  9 10  2  0
 20 21  1  0
 10  5  1  0
 20 22  2  0
 43 46  1  0
 44 45  1  0
 45 49  2  0
 48 46  1  0
 46 47  1  0
 48 49  1  0
 21 23  1  0
 10 11  1  0
 23 24  1  0
  2  3  2  0
 24 25  1  0
 49 50  1  0
 50 51  2  0
 51 52  1  0
 52 48  2  0
 11 12  1  0
 52 53  1  0
 53 54  2  0
 25 26  1  0
  5  6  2  0
 26 27  1  0
 12 13  1  0
 54 55  1  0
 55 56  2  0
 56 57  1  0
 57 53  1  0
 27 28  1  0
 46 58  1  0
M  CHG  2  46  -1  48   1
M  END