
  SciTegic11201309402D

 71 73  0  0  1  0            999 V2000
    2.9397   -5.2359    0.0000 N   0  0
    7.8268   -7.6275    0.0000 C   0  0
    4.5134   -4.8124    0.0000 C   0  0
    7.0047   -7.5777    0.0000 C   0  0  1  0  0  0
    6.9175   -6.7638    0.0000 N   0  0
    5.3189   -4.9868    0.0000 N   0  0
    1.7439   -7.3119    0.0000 N   0  0
    2.3211   -5.7840    0.0000 C   0  0
    6.5812   -6.0082    0.0000 C   0  0
    1.8228   -8.1258    0.0000 C   0  0
    8.2005   -8.3583    0.0000 N   0  0
    9.5956   -7.9016    0.0000 C   0  0
    3.6913   -4.8996    0.0000 C   0  0  1  0  0  0
    6.0331   -5.3978    0.0000 C   0  0  2  0  0  0
    2.7155   -9.4918    0.0000 N   0  0
    1.9100   -6.5023    0.0000 C   0  0  2  0  0  0
    2.1591   -8.8814    0.0000 C   0  0  2  0  0  0
    9.3839   -7.1126    0.0000 N   0  0
    9.0102   -8.4870    0.0000 C   0  0  2  0  0  0
    6.5438   -4.7584    0.0000 C   0  0
    3.4297   -9.9029    0.0000 C   0  0
    9.7534   -5.7300    0.0000 C   0  0
   13.5194   -6.0040    0.0000 C   0  0
    7.3410   -4.5383    0.0000 C   0  0
   10.3388   -5.1487    0.0000 N   0  0
    6.4192   -9.0974    0.0000 S   0  0
    9.9651   -6.5272    0.0000 C   0  0  2  0  0  0
    5.8089   -9.6537    0.0000 S   0  0
   10.7043   -3.7660    0.0000 C   0  0
   14.1049   -5.4227    0.0000 N   0  0
    8.2753   -6.9382    0.0000 O   0  0
    4.5508   -3.9902    0.0000 O   0  0
   10.3928   -8.1216    0.0000 O   0  0
    1.6858   -5.2691    0.0000 O   0  0
    7.2746   -5.5598    0.0000 O   0  0
    1.0339   -8.3375    0.0000 O   0  0
    6.8303   -8.3874    0.0000 C   0  0
    1.4699   -9.3299    0.0000 C   0  0
    1.1460   -6.2075    0.0000 C   0  0
    4.2352  -10.0772    0.0000 C   0  0
    8.9562   -5.5182    0.0000 O   0  0
    3.1307  -10.6752    0.0000 O   0  0
    7.9265   -5.1113    0.0000 O   0  0
   11.5015   -3.9861    0.0000 O   0  0
   12.7222   -5.7922    0.0000 N   0  0
   10.1188   -4.3515    0.0000 C   0  0
   13.7312   -6.7929    0.0000 N   0  0
    3.4795   -4.1023    0.0000 C   0  0
    7.5403   -3.7411    0.0000 N   0  0
    0.6477   -9.3299    0.0000 C   0  0
   10.4925   -2.9771    0.0000 N   0  0
   -1.0048   -9.3216    0.0000 C   0  0
    0.5605   -5.6220    0.0000 C   0  0
    7.8268   -9.0974    0.0000 C   0  0
    5.0490   -9.9901    0.0000 C   0  0
    0.2367  -10.0399    0.0000 C   0  0
    0.2367   -8.6116    0.0000 C   0  0
   -0.5937   -8.6074    0.0000 C   0  0
   -0.5855  -10.0441    0.0000 C   0  0
   -1.8269   -9.3216    0.0000 O   0  0
    9.2676   -9.2718    0.0000 C   0  0
   10.7624   -6.7431    0.0000 C   0  0
   12.1367   -6.3694    0.0000 C   0  0
    2.6823   -3.8906    0.0000 C   0  0
    4.0608   -3.5169    0.0000 C   0  0
    0.7765   -4.8124    0.0000 C   0  0
   -0.2367   -5.8338    0.0000 C   0  0
   11.3478   -6.1577    0.0000 C   0  0
   -0.8304   -5.2483    0.0000 C   0  0
    0.1910   -4.2269    0.0000 C   0  0
   -0.6186   -4.4469    0.0000 C   0  0
  4  2  1  6
  3 13  1  0
  4  5  1  0
  5  9  1  0
  6  3  1  0
  7 16  1  0
  8  1  1  0
  9 14  1  0
 10  7  1  0
 11  2  1  0
 12 19  1  0
 13  1  1  0
 14  6  1  0
 15 17  1  0
 16  8  1  0
 17 10  1  0
 18 12  1  0
 19 11  1  0
 14 20  1  1
 21 15  1  0
 22 27  1  0
 23 45  2  0
 24 20  1  0
 25 22  1  0
 26 37  1  0
 27 18  1  6
 28 26  1  0
 29 46  1  0
 30 23  1  0
 31  2  2  0
 32  3  2  0
 33 12  2  0
 34  8  2  0
 35  9  2  0
 36 10  2  0
  4 37  1  0
 17 38  1  6
 16 39  1  1
 40 21  1  0
 41 22  2  0
 42 21  2  0
 43 24  2  0
 44 29  2  0
 45 63  1  0
 46 25  1  0
 47 23  1  0
 13 48  1  6
 49 24  1  0
 50 38  1  0
 51 29  1  0
 52 58  2  0
 53 39  1  0
 54 11  1  0
 40 55  1  0
 56 50  1  0
 57 50  2  0
 58 57  1  0
 59 56  2  0
 60 52  1  0
 19 61  1  6
 27 62  1  0
 63 68  1  0
 64 48  1  0
 65 48  1  0
 66 53  2  0
 67 53  1  0
 68 62  1  0
 69 67  2  0
 70 66  1  0
 71 69  1  0
 70 71  2  0
 59 52  1  0
 55 28  1  0
M  END