
  SciTegic06181315362D

 34 36  0  0  0  0            999 V2000
    7.3363  -20.2841    0.0000 C   0  0
    7.3352  -21.1115    0.0000 C   0  0
    8.0500  -21.5244    0.0000 C   0  0
    8.7665  -21.1111    0.0000 C   0  0
    8.7637  -20.2805    0.0000 C   0  0
    8.0482  -19.8714    0.0000 C   0  0
    6.6218  -19.8718    0.0000 O   0  0
    5.9074  -20.2845    0.0000 C   0  0
    5.9076  -21.1095    0.0000 C   0  0
    5.1932  -21.5222    0.0000 O   0  0
    9.4816  -21.5225    0.0000 O   0  0
   10.1955  -21.1089    0.0000 C   0  0
   10.9107  -21.5202    0.0000 C   0  0
   11.6245  -21.1066    0.0000 C   0  0
   10.9119  -22.3452    0.0000 O   0  0
   12.3397  -21.5180    0.0000 N   0  0
   13.0535  -21.1043    0.0000 C   0  0
   13.7687  -21.5157    0.0000 C   0  0
   14.4826  -21.1021    0.0000 N   0  0
   15.1977  -21.5135    0.0000 C   0  0
   15.9116  -21.0999    0.0000 N   0  0
   15.1990  -22.3386    0.0000 O   0  0
   16.6267  -21.5113    0.0000 C   0  0
   16.6242  -22.3353    0.0000 C   0  0
   17.3385  -22.7467    0.0000 C   0  0
   18.0533  -22.3330    0.0000 C   0  0
   18.0494  -21.5037    0.0000 C   0  0
   17.3345  -21.0961    0.0000 C   0  0
    4.4785  -21.1103    0.0000 C   0  0
    4.4894  -20.2844    0.0000 C   0  0
    3.7150  -20.0193    0.0000 C   0  0
    3.2204  -20.6799    0.0000 C   0  0
    3.6916  -21.3535    0.0000 C   0  0
   17.3295  -20.2711    0.0000 O   0  0
  1  2  2  0
  2  3  1  0
  3  4  2  0
  4  5  1  0
  5  6  2  0
  6  1  1  0
  1  7  1  0
  7  8  1  0
  8  9  1  0
  9 10  1  0
  4 11  1  0
 11 12  1  0
 12 13  1  0
 13 14  1  0
 13 15  1  0
 14 16  1  0
 16 17  1  0
 17 18  1  0
 18 19  1  0
 19 20  1  0
 20 21  1  0
 20 22  2  0
 21 23  1  0
 23 24  2  0
 24 25  1  0
 25 26  2  0
 26 27  1  0
 27 28  2  0
 28 23  1  0
 10 29  1  0
 29 30  1  0
 30 31  1  0
 31 32  1  0
 32 33  1  0
 33 29  1  0
 28 34  1  0
M  END