
  SciTegic12091613532D

 34 38  0  0  0  0            999 V2000
    9.0550    2.7274    0.0000 C   0  0
    8.0574    3.8486    0.0000 C   0  0
   -2.3155    0.7475    0.0000 C   0  0
   -2.3155   -0.7475    0.0000 C   0  0
   -1.0028   -1.5132    0.0000 C   0  0
   -1.0028    1.5132    0.0000 C   0  0
    0.2917    0.7475    0.0000 C   0  0
    0.2917   -0.7475    0.0000 C   0  0
    1.7138   -1.2033    0.0000 N   0  0
    2.5889    0.0182    0.0000 C   0  0
    1.7138    1.2033    0.0000 C   0  0
    2.1812    2.6271    0.0000 C   0  0
    3.6500    2.9355    0.0000 N   0  0
    4.1200    4.3600    0.0000 C   0  0
    5.5886    4.6654    0.0000 C   0  0
    6.5873    3.5462    0.0000 N   0  0
    8.4352    4.9876    0.0000 O   0  0
    2.1852   -2.6281    0.0000 C   0  0
    3.6221   -3.0405    0.0000 C   0  0
    3.9838   -4.4963    0.0000 C   0  0
    2.9039   -5.5373    0.0000 C   0  0
    1.4624   -5.1227    0.0000 C   0  0
    1.1007   -3.6669    0.0000 C   0  0
    4.6488    1.8163    0.0000 C   0  0
    6.1174    2.1217    0.0000 C   0  0
    0.3819   -6.1644    0.0000 C   0  0
    0.6705   -7.3291    0.0000 F   0  0
   -0.7712   -5.8323    0.0000 F   0  0
   -0.4824   -6.9968    0.0000 F   0  0
   10.5247    3.0276    0.0000 C   0  0
   11.5195    1.9049    0.0000 C   0  0
    8.5803    1.3045    0.0000 C   0  0
    9.5751    0.1818    0.0000 C   0  0
   11.0447    0.4821    0.0000 C   0  0
  1  2  1  0
  3  4  2  0
  4  5  1  0
  5  8  2  0
  7  6  2  0
  6  3  1  0
  7  8  1  0
  8  9  1  0
  9 10  1  0
 10 11  2  0
 11  7  1  0
 11 12  1  0
 12 13  1  0
 13 14  1  0
 14 15  1  0
 15 16  1  0
 16  2  1  0
  2 17  2  0
 18 19  2  0
 19 20  1  0
 20 21  2  0
 21 22  1  0
 22 23  2  0
 23 18  1  0
  9 18  1  0
 13 24  1  0
 16 25  1  0
 24 25  1  0
 26 27  1  0
 26 28  1  0
 26 29  1  0
 22 26  1  0
  1 30  2  0
 30 31  1  0
 31 34  2  0
 33 32  2  0
 32  1  1  0
 33 34  1  0
M  END