
  SciTegic12231509382D

 12 13  0  0  0  0            999 V2000
   10.4622  -20.3525    0.0000 C   0  0
   10.4610  -21.1793    0.0000 C   0  0
   11.1754  -21.5919    0.0000 C   0  0
   11.1736  -19.9401    0.0000 C   0  0
   12.6746  -20.0951    0.0000 N   0  0
   11.8884  -20.3489    0.0000 C   0  0
   11.8881  -21.1757    0.0000 C   0  0
   12.6749  -21.4303    0.0000 C   0  0
   13.1589  -20.7598    0.0000 C   0  0
   12.9313  -22.2138    0.0000 C   0  0
   12.3810  -22.8276    0.0000 C   0  0
   12.6374  -23.6111    0.0000 N   0  0
  2  3  1  0
  3  7  2  0
  1  2  2  0
  6  4  2  0
  5  6  1  0
  7  8  1  0
  8  9  2  0
  9  5  1  0
  4  1  1  0
  8 10  1  0
  6  7  1  0
 10 11  1  0
 11 12  1  0
M  END