
  Mrv0541 04051115152D          

 11 11  0  0  0  0            999 V2000
   -0.0000   -1.3485    0.0000 C   0  0  0  0  0  0  0  0  0  0  0  0
   -0.0000   -2.1735    0.0000 N   0  0  0  0  0  0  0  0  0  0  0  0
   -0.7145   -0.9360    0.0000 C   0  0  0  0  0  0  0  0  0  0  0  0
   -0.7145   -0.1110    0.0000 C   0  0  0  0  0  0  0  0  0  0  0  0
    0.0000    0.3015    0.0000 C   0  0  0  0  0  0  0  0  0  0  0  0
    0.7145   -0.1110    0.0000 C   0  0  0  0  0  0  0  0  0  0  0  0
    0.7145   -0.9360    0.0000 C   0  0  0  0  0  0  0  0  0  0  0  0
    0.0000    1.1265    0.0000 S   0  0  0  0  0  0  0  0  0  0  0  0
    0.0000    1.9515    0.0000 N   0  0  0  0  0  0  0  0  0  0  0  0
    0.8250    1.1265    0.0000 O   0  0  0  0  0  0  0  0  0  0  0  0
   -0.8250    1.1265    0.0000 O   0  0  0  0  0  0  0  0  0  0  0  0
  1  2  1  0  0  0  0
  1  3  2  0  0  0  0
  1  7  1  0  0  0  0
  3  4  1  0  0  0  0
  4  5  2  0  0  0  0
  5  6  1  0  0  0  0
  5  8  1  0  0  0  0
  6  7  2  0  0  0  0
  9  8  1  0  0  0  0
 10  8  2  0  0  0  0
 11  8  2  0  0  0  0
M  END