
  SciTegic12091219272D

 18 18  0  0  0  0            999 V2000
   -2.1445    0.4100    0.0000 S   0  0
   -1.4302    0.8238    0.0000 N   0  0
   -2.7168    0.7388    0.0000 O   0  0
   -2.1433   -0.2500    0.0000 O   0  0
    0.7145   -0.4125    0.0000 C   0  0
    2.1414   -2.0664    0.0000 N   0  0
    1.4273   -1.6522    0.0000 C   0  0
    0.7145    0.4125    0.0000 C   0  0
    0.0000   -0.8250    0.0000 C   0  0
    1.4285   -0.8267    0.0000 C   0  0
   -0.7145    0.4125    0.0000 C   0  0
   -2.7155    0.0789    0.0000 C   0  0
    0.0000    0.8250    0.0000 C   0  0
   -0.7145   -0.4125    0.0000 C   0  0
    2.0007   -0.4977    0.0000 O   0  0
    2.1402   -2.8919    0.0000 C   0  0
    2.7111   -3.2231    0.0000 C   0  0
    1.5680   -3.2209    0.0000 C   0  0
  1  2  1  0
  1  3  2  0
  1  4  2  0
  6  7  1  0
  5  8  1  0
  5  9  2  0
  5 10  1  0
  7 10  1  0
  2 11  1  0
  1 12  1  0
  8 13  2  0
 11 13  1  0
  9 14  1  0
 11 14  2  0
 10 15  1  0
  6 16  1  0
 16 17  1  0
 16 18  1  0
M  END