
  SciTegic12201612092D

 24 26  0  0  0  0            999 V2000
   -2.3155    0.7475    0.0000 C   0  0
   -2.3155   -0.7475    0.0000 C   0  0
   -1.0028   -1.5132    0.0000 C   0  0
   -1.0028    1.5132    0.0000 C   0  0
    0.2917    0.7475    0.0000 C   0  0
    0.2917   -0.7475    0.0000 C   0  0
    1.7138   -1.2033    0.0000 N   0  0
    2.5889    0.0182    0.0000 C   0  0
    1.7138    1.2033    0.0000 C   0  0
    2.1855   -2.6254    0.0000 C   0  0
    1.3877   -3.5218    0.0000 C   0  0
    3.3606   -2.8684    0.0000 O   0  0
    2.1812    2.6271    0.0000 N   0  0
    3.6500    2.9355    0.0000 C   0  0
    4.6488    1.8163    0.0000 C   0  0
    6.1174    2.1217    0.0000 C   0  0
    6.5873    3.5462    0.0000 C   0  0
    5.5886    4.6654    0.0000 C   0  0
    4.1200    4.3600    0.0000 C   0  0
    1.1824    3.7473    0.0000 C   0  0
    1.5580    4.8870    0.0000 O   0  0
    0.0075    3.5032    0.0000 C   0  0
    6.9164    1.2263    0.0000 O   0  0
    3.3211    5.2554    0.0000 C   0  0
  1  2  2  0
  2  3  1  0
  3  6  2  0
  5  4  2  0
  4  1  1  0
  5  6  1  0
  6  7  1  0
  7  8  1  0
  8  9  2  0
  9  5  1  0
  7 10  1  0
 10 11  1  0
 10 12  2  0
  9 13  1  0
 13 14  1  0
 14 15  2  0
 15 16  1  0
 16 17  2  0
 17 18  1  0
 18 19  2  0
 19 14  1  0
 13 20  1  0
 20 21  2  0
 20 22  1  0
 16 23  1  0
 19 24  1  0
M  END