
  Mrv0541 04051115152D          

 11 12  0  0  0  0            999 V2000
    0.0726   -0.2928    0.0000 C   0  0  0  0  0  0  0  0  0  0  0  0
   -0.6418   -0.7053    0.0000 C   0  0  0  0  0  0  0  0  0  0  0  0
   -1.3563   -0.2928    0.0000 C   0  0  0  0  0  0  0  0  0  0  0  0
   -1.3563    0.5322    0.0000 C   0  0  0  0  0  0  0  0  0  0  0  0
   -0.6418    0.9447    0.0000 C   0  0  0  0  0  0  0  0  0  0  0  0
    0.0726    0.5322    0.0000 C   0  0  0  0  0  0  0  0  0  0  0  0
    0.7871    0.9447    0.0000 C   0  0  0  0  0  0  0  0  0  0  0  0
    1.5016    0.5322    0.0000 C   0  0  0  0  0  0  0  0  0  0  0  0
    1.5016   -0.2928    0.0000 C   0  0  0  0  0  0  0  0  0  0  0  0
    0.7871   -0.7053    0.0000 C   0  0  0  0  0  0  0  0  0  0  0  0
   -0.6418   -1.5303    0.0000 O   0  0  0  0  0  0  0  0  0  0  0  0
  1  2  2  0  0  0  0
  1  6  1  0  0  0  0
  1 10  1  0  0  0  0
  2  3  1  0  0  0  0
  2 11  1  0  0  0  0
  3  4  2  0  0  0  0
  4  5  1  0  0  0  0
  5  6  2  0  0  0  0
  6  7  1  0  0  0  0
  7  8  1  0  0  0  0
  8  9  1  0  0  0  0
 10  9  1  0  0  0  0
M  END