
  SciTegic12111210002D

 12 11  0  0  1  0            999 V2000
  -14.5160    3.0892    0.0000 N   0  0
  -13.8016    3.5017    0.0000 C   0  0
  -13.0871    3.0892    0.0000 N   0  0
  -12.3726    3.5017    0.0000 C   0  0
  -11.6581    3.0892    0.0000 C   0  0
  -10.9437    3.5017    0.0000 C   0  0
  -10.2292    3.0892    0.0000 C   0  0  1  0  0  0
   -9.5147    3.5017    0.0000 C   0  0
   -8.8003    3.0892    0.0000 O   0  0
   -9.5147    4.3267    0.0000 O   0  0
  -10.2292    2.2642    0.0000 N   0  0
  -13.8016    4.3267    0.0000 N   0  0
  1  2  1  0
  2  3  1  0
  3  4  1  0
  4  5  1  0
  5  6  1  0
  6  7  1  0
  7  8  1  0
  8  9  1  0
  8 10  2  0
  7 11  1  1
  2 12  2  0
M  END