
  SciTegic02271515072D

 55 59  0  0  0  0            999 V2000
   -4.2366  -21.3306    0.0000 N   0  0
   -4.4979  -22.0876    0.0000 C   0  0  1  0  0  0
   -3.5288  -21.0922    0.0000 C   0  0
   -4.7336  -20.6209    0.0000 C   0  0
   -4.0562  -22.7306    0.0000 C   0  0  1  0  0  0
   -5.2927  -22.3307    0.0000 O   0  0
   -3.5224  -20.1881    0.0000 C   0  0
   -2.8080  -21.5235    0.0000 N   0  0
   -4.2262  -19.9422    0.0000 N   0  0
   -4.5321  -23.3807    0.0000 C   0  0  1  0  0  0
   -3.2852  -22.9962    0.0000 O   0  0
   -5.3058  -23.1280    0.0000 C   0  0  1  0  0  0
   -2.8266  -19.7903    0.0000 C   0  0
   -2.0667  -21.1045    0.0000 C   0  0
   -4.0663  -24.0526    0.0000 O   0  0
   -5.9539  -23.5972    0.0000 C   0  0
   -2.0633  -20.2292    0.0000 N   0  0
   -2.8210  -18.9801    0.0000 N   0  0
   -6.6037  -23.1380    0.0000 N   0  0
   -1.3550  -21.5237    0.0000 N   0  0
   -0.6425  -21.1175    0.0000 C   0  0
    0.0711  -21.5367    0.0000 C   0  0
    0.7867  -21.1305    0.0000 C   0  0
    1.4902  -21.5532    0.0000 C   0  0
    2.2011  -21.1477    0.0000 C   0  0
    2.2091  -20.3255    0.0000 C   0  0
    1.5002  -19.9105    0.0000 C   0  0
    0.7880  -20.3143    0.0000 C   0  0
    2.9241  -19.9225    0.0000 C   0  0
    3.6327  -20.3367    0.0000 C   0  0
    4.3478  -19.9337    0.0000 C   0  0
    5.0564  -20.3478    0.0000 N   0  0
    4.3542  -19.1124    0.0000 O   0  0
   -5.9447  -24.4185    0.0000 O   0  0
   -6.6108  -22.3167    0.0000 C   0  0
   -7.3182  -21.9050    0.0000 C   0  0
    5.7662  -19.9430    0.0000 C   0  0
    6.4709  -20.3586    0.0000 C   0  0
    7.1802  -19.9544    0.0000 C   0  0
    7.1850  -19.1364    0.0000 C   0  0
    6.4745  -18.7242    0.0000 C   0  0
    5.7681  -19.1307    0.0000 C   0  0
    7.8899  -20.3690    0.0000 N   0  3
    8.5999  -19.9645    0.0000 O   0  0
    7.8851  -21.1861    0.0000 O   0  5
    7.8944  -18.7306    0.0000 O   0  0
    7.8976  -17.9134    0.0000 C   0  0
    8.6070  -17.5077    0.0000 C   0  0
    7.1916  -17.5020    0.0000 O   0  0
    8.6102  -16.6905    0.0000 C   0  0
    7.9042  -16.2791    0.0000 C   0  0
    7.9074  -15.4619    0.0000 C   0  0
    7.2014  -15.0505    0.0000 N   0  0
    7.2046  -14.2333    0.0000 N   0  3
    7.2050  -13.4190    0.0000 N   0  5
  2  1  1  1
  1  3  1  0
  1  4  1  0
  5  2  1  0
  2  6  1  0
  3  7  2  0
  3  8  1  0
  4  9  2  0
  5 10  1  0
  5 11  1  6
  6 12  1  0
  7 13  1  0
  8 14  2  0
 10 15  1  6
 12 16  1  1
 13 17  2  0
 13 18  1  0
 16 19  1  0
  7  9  1  0
 10 12  1  0
 14 17  1  0
 14 20  1  0
 20 21  1  0
 21 22  1  0
 22 23  1  0
 23 24  2  0
 24 25  1  0
 25 26  2  0
 26 27  1  0
 27 28  2  0
 28 23  1  0
 26 29  1  0
 29 30  1  0
 30 31  1  0
 31 32  1  0
 31 33  2  0
 16 34  2  0
 19 35  1  0
 35 36  1  0
 32 37  1  0
 37 38  2  0
 38 39  1  0
 39 40  2  0
 40 41  1  0
 41 42  2  0
 42 37  1  0
 43 44  2  0
 43 45  1  0
 39 43  1  0
 40 46  1  0
 46 47  1  0
 47 48  1  0
 47 49  2  0
 48 50  1  0
 50 51  1  0
 51 52  1  0
 52 53  1  0
 53 54  2  0
 54 55  2  0
M  CHG  4  43   1  45  -1  54   1  55  -1
M  END