
  SciTegic06181315362D

 34 36  0  0  0  0            999 V2000
    5.9735  -16.6622    0.0000 C   0  0
    5.9724  -17.4897    0.0000 C   0  0
    6.6871  -17.9026    0.0000 C   0  0
    7.4036  -17.4892    0.0000 C   0  0
    7.4008  -16.6586    0.0000 C   0  0
    6.6853  -16.2495    0.0000 C   0  0
    5.2589  -16.2499    0.0000 O   0  0
    4.5446  -16.6626    0.0000 C   0  0
    4.5448  -17.4876    0.0000 C   0  0
    3.8304  -17.9002    0.0000 O   0  0
    8.1187  -17.9005    0.0000 O   0  0
    8.8325  -17.4869    0.0000 C   0  0
    9.5477  -17.8983    0.0000 C   0  0
   10.2614  -17.4847    0.0000 C   0  0
    9.5489  -18.7233    0.0000 O   0  0
   10.9766  -17.8961    0.0000 N   0  0
   11.6903  -17.4824    0.0000 C   0  0
   12.4055  -17.8938    0.0000 C   0  0
   13.1193  -17.4802    0.0000 N   0  0
   13.8344  -17.8916    0.0000 C   0  0
   14.5482  -17.4779    0.0000 N   0  0
   13.8357  -18.7166    0.0000 O   0  0
   15.2633  -17.8893    0.0000 C   0  0
   15.2609  -18.7134    0.0000 C   0  0
   15.9751  -19.1247    0.0000 C   0  0
   16.6899  -18.7110    0.0000 C   0  0
   16.6860  -17.8818    0.0000 C   0  0
   15.9711  -17.4742    0.0000 C   0  0
    3.1158  -17.4883    0.0000 C   0  0
    3.1267  -16.6626    0.0000 C   0  0
    2.3523  -16.3974    0.0000 C   0  0
    1.8578  -17.0581    0.0000 C   0  0
    2.3289  -17.7315    0.0000 C   0  0
   15.9661  -16.6492    0.0000 C   0  0
  1  2  2  0
  2  3  1  0
  3  4  2  0
  4  5  1  0
  5  6  2  0
  6  1  1  0
  1  7  1  0
  7  8  1  0
  8  9  1  0
  9 10  1  0
  4 11  1  0
 11 12  1  0
 12 13  1  0
 13 14  1  0
 13 15  1  0
 14 16  1  0
 16 17  1  0
 17 18  1  0
 18 19  1  0
 19 20  1  0
 20 21  1  0
 20 22  2  0
 21 23  1  0
 23 24  2  0
 24 25  1  0
 25 26  2  0
 26 27  1  0
 27 28  2  0
 28 23  1  0
 10 29  1  0
 29 30  1  0
 30 31  1  0
 31 32  1  0
 32 33  1  0
 33 29  1  0
 28 34  1  0
M  END