
  SciTegic05291414162D

 50 50  0  0  1  0            999 V2000
   11.4116   -8.4768    0.0000 C   0  0
   12.8533  -10.9120    0.0000 S   0  0
    9.2653  -10.5183    0.0000 S   0  0
    9.2501   -7.2597    0.0000 S   0  0
   13.5825   -7.2520    0.0000 C   0  0
   12.8545   -8.4825    0.0000 C   0  0  2  0  0  0
   12.1311   -8.0671    0.0000 C   0  0  2  0  0  0
   11.4154   -9.2894    0.0000 C   0  0
   13.5821   -8.0604    0.0000 C   0  0  2  0  0  0
   12.1345   -9.6965    0.0000 C   0  0  2  0  0  0
    9.9896   -8.4834    0.0000 C   0  0  2  0  0  0
    9.9935   -9.2960    0.0000 C   0  0  2  0  0  0
   10.7008   -8.0614    0.0000 C   0  0
   12.8582   -9.2827    0.0000 C   0  0
   10.7084   -9.7032    0.0000 C   0  0
   14.3773   -7.0120    0.0000 C   0  0
   12.1383  -10.5049    0.0000 O   0  0
    9.2616   -9.7099    0.0000 O   0  0
    9.2540   -8.0806    0.0000 O   0  0
   12.8675   -6.8407    0.0000 C   0  0
   12.1397   -7.2463    0.0000 C   0  0
   14.3669   -8.3387    0.0000 C   0  0
   14.8531   -7.6772    0.0000 C   0  0
    9.2462   -6.4264    0.0000 O   0  5
    9.2692  -11.3392    0.0000 O   0  5
   13.5766  -11.3190    0.0000 O   0  5
    9.9613   -6.8460    0.0000 O   0  0
    8.5311   -6.8609    0.0000 O   0  0
    8.5500  -10.9321    0.0000 O   0  0
   12.8572  -11.7287    0.0000 O   0  0
   13.5810  -10.5106    0.0000 O   0  0
   10.0011  -10.9253    0.0000 O   0  0
   17.3878   -7.1348    0.0000 C   0  0
   14.6474   -6.2354    0.0000 C   0  0
   15.4674   -6.0741    0.0000 C   0  0
   16.0259   -6.6892    0.0000 C   0  0
   16.8377   -6.5279    0.0000 C   0  0
   11.4077   -7.6435    0.0000 C   0  0
   13.5786   -6.4269    0.0000 C   0  0
   15.2311  -11.3942    0.0000 Na  0  3
   10.4288   -5.7618    0.0000 Na  0  3
    9.8009  -12.4436    0.0000 Na  0  3
   17.9750   -7.7165    0.0000 C   0  0
   18.1955   -6.9817    0.0000 C   0  0
   17.1178   -7.9196    0.0000 C   0  0
   14.0973   -5.6285    0.0000 C   0  0
   17.1036   -5.7514    0.0000 C   0  0
   12.1329   -8.8847    0.0000 H   0  0
   12.8427   -7.6530    0.0000 H   0  0
   13.5650   -8.9013    0.0000 H   0  0
  2 17  1  0
  3 18  1  0
  4 19  1  0
  5 20  1  0
  6  7  1  0
  7  1  1  0
  8  1  1  0
  6  9  1  0
 10  8  1  0
 11 13  1  0
 11 12  1  0
 13  1  1  0
 10 14  1  0
 15  8  1  0
 16  5  1  0
 10 17  1  6
 12 18  1  6
 11 19  1  1
 20 21  1  0
  7 21  1  0
  9 22  1  0
 23 22  1  0
 24  4  1  0
 25  3  1  0
 26  2  1  0
 27  4  2  0
 28  4  2  0
 29  3  2  0
 30  2  2  0
 31  2  2  0
 32  3  2  0
 33 37  1  0
 34 16  1  0
 35 34  1  0
 36 35  1  0
 37 36  1  0
 38  1  1  0
 39  5  1  0
 43 33  1  0
 44 33  1  0
 45 33  1  0
 46 34  1  0
 37 47  1  0
 12 15  1  0
  6 14  1  0
  9  5  1  0
 23 16  1  0
  7 48  1  6
  6 49  1  1
  9 50  1  6
M  CHG  6  24  -1  25  -1  26  -1  40   1  41   1  42   1
M  END