
  SciTegic01111613442D

 35 37  0  0  0  0            999 V2000
   -2.7349   -1.5042    0.0000 C   0  0
   -3.9594   -3.5998    0.0000 C   0  0
   -0.0048   -2.9949    0.0000 C   0  0
   -2.6048   -2.9858    0.0000 C   0  0  2  0  0  0
    2.5951   -3.0039    0.0000 C   0  0  2  0  0  0
    3.8925   -3.7584    0.0000 C   0  0  1  0  0  0
    2.5973   -1.5031    0.0000 C   0  0
    3.8976   -0.7537    0.0000 C   0  0
    3.9019    0.7463    0.0000 C   0  0
    5.1945   -1.5074    0.0000 C   0  0
    5.2031    1.4926    0.0000 C   0  0
    6.4957   -0.7611    0.0000 C   0  0
    6.5000    0.7389    0.0000 C   0  0
    5.1951   -3.0130    0.0000 C   0  0
    6.4842   -5.2683    0.0000 C   0  0
    5.1807   -6.0123    0.0000 C   0  0
    9.0924   -3.7765    0.0000 C   0  0
    9.0877   -5.2765    0.0000 C   0  0
   10.3843   -6.0306    0.0000 C   0  0
   11.6857   -5.2847    0.0000 C   0  0
   11.6905   -3.7847    0.0000 C   0  0
   10.3938   -3.0306    0.0000 C   0  0
    5.1741   -7.2123    0.0000 C   0  0
    4.1447   -5.4069    0.0000 C   0  0
   -4.9573   -2.4799    0.0000 C   0  0
    1.2925   -3.7494    0.0000 N   0  0
    6.4925   -3.7675    0.0000 N   0  0
   12.7231   -5.8880    0.0000 N   0  0
   -1.3074   -3.7403    0.0000 O   0  0
   -0.0007   -1.7949    0.0000 O   0  0
    3.8883   -4.9584    0.0000 O   0  0
    7.7992   -1.8220    0.0000 O   0  0
    6.7580   -2.4182    0.0000 O   0  0
   -4.2005   -1.1847    0.0000 O   0  0
    7.7951   -3.0220    0.0000 S   0  0
  1  4  1  0
  1 34  1  0
  2  4  1  0
  2 25  1  0
  3 26  1  0
  3 29  1  0
  3 30  2  0
  4 29  1  1
  5  6  1  0
  5  7  1  0
  5 26  1  1
 14  6  1  0
  6 31  1  1
  7  8  1  0
  8  9  2  0
 10  8  1  0
 11  9  1  0
 10 12  2  0
 11 13  2  0
 12 13  1  0
 14 27  1  0
 15 16  1  0
 15 27  1  0
 16 23  1  0
 16 24  1  0
 17 18  2  0
 17 22  1  0
 17 35  1  0
 18 19  1  0
 19 20  2  0
 20 21  1  0
 20 28  1  0
 21 22  2  0
 25 34  1  0
 27 35  1  0
 32 35  2  0
 33 35  2  0
M  END