
  SciTegic12091219292D

 27 29  0  0  0  0            999 V2000
    4.2292   -5.0042    0.0000 N   0  0
    3.6292   -5.3792    0.0000 C   0  0
    5.4542   -4.2917    0.0000 N   0  0
    8.5417   -3.9542    0.0000 C   0  0
    3.0000   -5.0542    0.0000 C   0  0
    4.8500   -5.3417    0.0000 C   0  0
    4.2292   -4.2917    0.0000 C   0  0
    8.5292   -3.2875    0.0000 O   0  0
    3.6292   -6.0917    0.0000 C   0  0
    2.3917   -5.4250    0.0000 C   0  0
    3.0000   -4.3292    0.0000 C   0  0
    4.8500   -3.9167    0.0000 C   0  0
    5.4542   -5.0042    0.0000 C   0  0
    1.7667   -4.3292    0.0000 C   0  0
    9.1750   -4.3167    0.0000 O   0  0
    1.7667   -5.0542    0.0000 C   0  0
    2.3917   -4.0000    0.0000 C   0  0
    1.1542   -4.0000    0.0000 Cl  0  0
    6.0792   -3.9167    0.0000 C   0  0
    7.9042   -4.2917    0.0000 C   0  0
    7.3042   -3.9167    0.0000 O   0  0
    4.2292   -6.4375    0.0000 C   0  0
    3.0000   -6.4375    0.0000 C   0  0
    6.6917   -4.2917    0.0000 C   0  0
    3.0000   -7.1500    0.0000 C   0  0
    4.2292   -7.1500    0.0000 C   0  0
    3.6292   -7.5250    0.0000 C   0  0
  2  1  1  0
  3 12  1  0
  4 20  1  0
  5  2  1  0
  6  1  1  0
  7  1  1  0
  8  4  2  0
  9  2  1  0
 10  5  1  0
 11  5  2  0
 12  7  1  0
 13  6  1  0
 14 17  2  0
 15  4  1  0
 16 10  2  0
 17 11  1  0
 18 14  1  0
 19  3  1  0
 20 21  1  0
 21 24  1  0
 22  9  1  0
 23  9  2  0
 24 19  1  0
 25 23  1  0
 26 22  2  0
 27 26  1  0
 13  3  1  0
 16 14  1  0
 25 27  2  0
M  END