
  SciTegic04181614082D

 72 77  0  0  0  0            999 V2000
   -6.1400    1.7500    0.0000 C   0  0
    5.5300    0.3300    0.0000 C   0  0  1  0  0  0
    6.0300   -1.0800    0.0000 C   0  0
    7.4900   -1.0800    0.0000 C   0  0
    7.9400    0.3300    0.0000 C   0  0
    6.6900    1.2100    0.0000 N   0  0
    1.9500   -0.6700    0.0000 C   0  0  2  0  0  0
    1.3500   -2.0400    0.0000 C   0  0
    2.4400   -3.0300    0.0000 C   0  0
    3.7100   -2.3100    0.0000 C   0  0
    3.4100   -0.8000    0.0000 N   0  0
   -0.5200   -0.4400    0.0000 N   0  0
   -0.5200   -1.8400    0.0000 C   0  0  2  0  0  0
   -2.0400   -2.4100    0.0000 C   0  0
   -3.0700   -1.1200    0.0000 N   0  0
   -4.4200   -1.7300    0.0000 C   0  0  2  0  0  0
    0.7404   -2.6507    0.0000 C   0  0
    0.6681   -4.1498    0.0000 C   0  0
    1.9297   -4.9627    0.0000 C   0  0
    1.8574   -6.4618    0.0000 N   0  0
    3.1190   -7.2748    0.0000 C   0  0
    4.1861   -6.7258    0.0000 N   0  0
    3.0612   -8.4734    0.0000 N   0  0
   -2.3591   -3.5668    0.0000 O   0  0
    0.8800    0.1500    0.0000 C   0  0
    1.0326    1.3403    0.0000 O   0  0
   -5.4800   -0.6700    0.0000 C   0  0
   -4.6822   -3.2058    0.0000 C   0  0
   -6.0929   -3.7181    0.0000 C   0  0
   -6.3575   -5.1946    0.0000 C   0  0
   -7.7684   -5.7038    0.0000 C   0  0
   -8.9148   -4.7365    0.0000 C   0  0
   -8.6503   -3.2600    0.0000 C   0  0
   -7.2394   -2.7508    0.0000 C   0  0
   -6.6668   -0.8478    0.0000 O   0  0
   -4.7900    0.6300    0.0000 N   0  0
   -5.5000    3.1600    0.0000 C   0  0
   -6.1553    4.1653    0.0000 O   0  0
   -3.6300    3.1800    0.0000 N   0  0
   -1.8700    3.9400    0.0000 C   0  0  2  0  0  0
   -0.3600    2.9400    0.0000 C   0  0
   -1.7161    5.4302    0.0000 C   0  0
   -2.9310    6.3114    0.0000 C   0  0
   -2.8072    7.5050    0.0000 O   0  0
   -4.0267    5.8222    0.0000 N   0  0
   -0.3413    1.7401    0.0000 O   0  0
    0.7700    3.7400    0.0000 N   0  0
    2.0200    2.9400    0.0000 C   0  0  1  0  0  0
    2.0554    1.7405    0.0000 C   0  0
    3.1900    3.7900    0.0000 C   0  0
    4.3800    2.9400    0.0000 N   0  0
    3.1852    4.9900    0.0000 O   0  0
    5.5000    3.7400    0.0000 C   0  0  2  0  0  0
    6.7100    2.9400    0.0000 C   0  0
    5.4524    5.2391    0.0000 C   0  0
    6.7274    6.0308    0.0000 C   0  0
    6.6821    7.5302    0.0000 C   0  0
    7.9579    8.3191    0.0000 C   0  0
    9.2790    7.6088    0.0000 C   0  0
    9.3244    6.1095    0.0000 C   0  0
    8.0486    5.3205    0.0000 C   0  0
    7.7702    3.5021    0.0000 O   0  0
    4.2100    0.6700    0.0000 C   0  0
    3.7315    1.7705    0.0000 O   0  0
   -7.6026    1.4136    0.0000 C   0  0
   -8.1724    0.0327    0.0000 C   0  0
   -9.6595   -0.1640    0.0000 C   0  0
  -10.5734    1.0254    0.0000 C   0  0
  -10.0003    2.4116    0.0000 C   0  0
   -8.5133    2.6084    0.0000 C   0  0
    0.9816   -0.9194    0.0000 H   0  0
    4.8549   -0.4078    0.0000 H   0  0
  2  3  1  0
  3  4  1  0
  4  5  1  0
  5  6  1  0
  6  2  1  0
  7  8  1  0
  8  9  1  0
  9 10  1  0
 10 11  1  0
 11  7  1  0
 12 13  1  0
 14 13  1  0
 14 15  1  0
 16 15  1  0
 13 17  1  1
 17 18  1  0
 18 19  1  0
 19 20  1  0
 20 21  1  0
 21 22  1  0
 21 23  2  0
 14 24  2  0
 12 25  1  0
  7 25  1  0
 25 26  2  0
 16 27  1  0
 16 28  1  1
 28 29  1  0
 29 30  2  0
 30 31  1  0
 31 32  2  0
 32 33  1  0
 33 34  2  0
 34 29  1  0
 27 35  2  0
 27 36  1  0
  1 37  1  0
 37 38  2  0
 37 39  1  0
 39 40  1  0
 40 41  1  0
 40 42  1  1
 42 43  1  0
 43 44  2  0
 43 45  1  0
 41 46  2  0
 41 47  1  0
 47 48  1  0
 48 49  1  6
 48 50  1  0
 50 51  1  0
 50 52  2  0
 51 53  1  0
 53 54  1  0
 53 55  1  1
 55 56  1  0
 56 57  2  0
 57 58  1  0
 58 59  2  0
 59 60  1  0
 60 61  2  0
 61 56  1  0
 54 62  2  0
 11 63  1  0
  2 63  1  0
 63 64  2  0
 54  6  1  0
  1 36  1  0
 65 66  2  0
 66 67  1  0
 67 68  2  0
 68 69  1  0
 69 70  2  0
 70 65  1  0
  1 65  1  0
  7 71  1  6
  2 72  1  1
M  END