
  SciTegic11041415542D

 27 29  0  0  0  0            999 V2000
   10.1395   -9.9200    0.0000 C   0  0
    9.4197  -10.3283    0.0000 C   0  0
    9.4135  -11.1521    0.0000 C   0  0
   10.1287  -11.5727    0.0000 C   0  0
   10.8493  -11.1588    0.0000 C   0  0
   10.8493  -10.3326    0.0000 C   0  0
   11.5633  -11.5722    0.0000 N   0  0
   12.2782  -11.1605    0.0000 C   0  0
   12.9922  -11.5738    0.0000 C   0  0
   12.2792  -10.3355    0.0000 O   0  0
    8.7084   -9.9104    0.0000 Cl  0  0
    8.6979  -11.5566    0.0000 C   0  0
    7.9864  -11.1368    0.0000 C   0  0
    7.2693  -11.5432    0.0000 C   0  0
    7.2624  -12.3689    0.0000 C   0  0
    7.9787  -12.7867    0.0000 C   0  0
    8.6929  -12.3781    0.0000 N   0  0
   12.9892  -12.3985    0.0000 C   0  0
   13.7025  -12.8117    0.0000 C   0  0
   14.4183  -12.4000    0.0000 C   0  0
   14.4166  -11.5708    0.0000 C   0  0
   13.7029  -11.1612    0.0000 C   0  0
   15.1328  -12.8124    0.0000 S   0  0
   15.8471  -12.3998    0.0000 C   0  0
   14.5422  -13.3918    0.0000 O   0  0
   15.5367  -13.5202    0.0000 O   0  0
   13.7008  -10.3363    0.0000 Cl  0  0
 13 14  1  0
  5  7  1  0
 14 15  2  0
  3  4  2  0
 15 16  1  0
  7  8  1  0
 16 17  2  0
 17 12  1  0
  3 12  1  0
  9 18  1  0
  8  9  1  0
 18 19  2  0
  4  5  1  0
 19 20  1  0
  8 10  2  0
 20 21  2  0
  2  3  1  0
 21 22  1  0
 22  9  2  0
  2 11  1  0
 20 23  1  0
  5  6  2  0
 23 24  1  0
  6  1  1  0
 23 25  2  0
 12 13  2  0
 23 26  2  0
  1  2  2  0
 22 27  1  0
M  END