
  Mrv0541 04051115152D          

 24 27  0  0  0  0            999 V2000
   -0.7711   -1.2303    0.0000 O   0  0  0  0  0  0  0  0  0  0  0  0
   -1.1836   -0.5158    0.0000 S   0  0  0  0  0  0  0  0  0  0  0  0
   -1.5961    0.1987    0.0000 O   0  0  0  0  0  0  0  0  0  0  0  0
   -1.8981   -0.9283    0.0000 N   0  0  0  0  0  0  0  0  0  0  0  0
   -2.6126   -0.5158    0.0000 C   0  0  0  0  0  0  0  0  0  0  0  0
   -3.3662   -0.8514    0.0000 N   0  0  0  0  0  0  0  0  0  0  0  0
   -3.9183   -0.2383    0.0000 N   0  0  0  0  0  0  0  0  0  0  0  0
   -3.5058    0.4762    0.0000 N   0  0  0  0  0  0  0  0  0  0  0  0
   -2.6988    0.3047    0.0000 N   0  0  0  0  0  0  0  0  0  0  0  0
   -0.4691   -0.1033    0.0000 C   0  0  0  0  0  0  0  0  0  0  0  0
    0.2453   -0.5158    0.0000 C   0  0  0  0  0  0  0  0  0  0  0  0
   -0.4691    0.7217    0.0000 C   0  0  0  0  0  0  0  0  0  0  0  0
    0.2453    1.1342    0.0000 C   0  0  0  0  0  0  0  0  0  0  0  0
    0.9598    0.7217    0.0000 C   0  0  0  0  0  0  0  0  0  0  0  0
    1.6743    1.1342    0.0000 O   0  0  0  0  0  0  0  0  0  0  0  0
    2.3887    0.7217    0.0000 C   0  0  0  0  0  0  0  0  0  0  0  0
    3.1032    1.1342    0.0000 C   0  0  0  0  0  0  0  0  0  0  0  0
    3.8177    0.7217    0.0000 C   0  0  0  0  0  0  0  0  0  0  0  0
    3.8177   -0.1033    0.0000 C   0  0  0  0  0  0  0  0  0  0  0  0
    3.1032   -0.5158    0.0000 C   0  0  0  0  0  0  0  0  0  0  0  0
    2.3887   -0.1033    0.0000 C   0  0  0  0  0  0  0  0  0  0  0  0
    1.6743   -0.5158    0.0000 C   0  0  0  0  0  0  0  0  0  0  0  0
    0.9598   -0.1033    0.0000 C   0  0  0  0  0  0  0  0  0  0  0  0
    1.6743   -1.3408    0.0000 O   0  0  0  0  0  0  0  0  0  0  0  0
  1  2  2  0  0  0  0
  3  2  2  0  0  0  0
  4  2  1  0  0  0  0
 10  2  1  0  0  0  0
  5  4  2  0  0  0  0
  5  6  1  0  0  0  0
  5  9  1  0  0  0  0
  6  7  1  0  0  0  0
  7  8  2  0  0  0  0
  8  9  1  0  0  0  0
 11 10  2  0  0  0  0
 10 12  1  0  0  0  0
 11 23  1  0  0  0  0
 12 13  2  0  0  0  0
 13 14  1  0  0  0  0
 14 15  1  0  0  0  0
 14 23  2  0  0  0  0
 16 15  1  0  0  0  0
 16 17  2  0  0  0  0
 21 16  1  0  0  0  0
 17 18  1  0  0  0  0
 19 18  2  0  0  0  0
 19 20  1  0  0  0  0
 20 21  2  0  0  0  0
 21 22  1  0  0  0  0
 22 23  1  0  0  0  0
 22 24  2  0  0  0  0
M  END