
  SciTegic01091215432D

 64 70  0  0  0  0            999 V2000
   11.2766  -17.7427    0.0000 C   0  0
   11.9937  -18.1504    0.0000 C   0  0
   12.7056  -17.7332    0.0000 C   0  0
   13.3879  -18.1970    0.0000 C   0  0
   13.4183  -19.0196    0.0000 C   0  0
   14.2106  -19.2497    0.0000 C   0  0
   14.1686  -17.9155    0.0000 N   0  0
   14.6707  -18.5684    0.0000 C   0  0
   15.4827  -18.4607    0.0000 C   0  0
   14.4785  -17.1549    0.0000 B   0  5
   14.4711  -16.3284    0.0000 F   0  0
   15.2968  -17.0480    0.0000 N   0  3
   15.7983  -17.6974    0.0000 C   0  0
   16.5710  -17.4212    0.0000 C   0  0
   16.5471  -16.6009    0.0000 C   0  0
   15.7597  -16.3703    0.0000 C   0  0
   15.4819  -15.5934    0.0000 C   0  0
   15.9433  -14.9126    0.0000 C   0  0
   15.4390  -14.2596    0.0000 C   0  0
   14.6621  -14.5374    0.0000 C   0  0
   14.6863  -15.3620    0.0000 S   0  0
   13.7585  -16.7409    0.0000 F   0  0
   -4.4378  -14.4843    0.0000 C   0  0
   -4.4378  -15.3093    0.0000 C   0  0
   -3.7258  -15.7178    0.0000 C   0  0
   -3.7258  -14.0677    0.0000 C   0  0
   -3.0137  -14.4843    0.0000 C   0  0
   -3.0126  -15.3093    0.0000 C   0  0
   -2.3016  -15.7187    0.0000 C   0  0
   -1.5869  -15.3075    0.0000 C   0  0
   -1.5880  -14.4825    0.0000 C   0  0
   -2.3037  -14.0686    0.0000 C   0  0
   -2.3059  -13.2436    0.0000 O   0  0
   -1.5924  -12.8291    0.0000 C   0  0
   -0.8768  -13.2397    0.0000 C   0  0  2  0  0  0
   -0.1634  -12.8253    0.0000 C   0  0
   -0.8746  -14.0648    0.0000 O   0  0
    0.5522  -13.2359    0.0000 N   0  0
    1.2657  -12.8215    0.0000 C   0  0
    1.9812  -13.2321    0.0000 C   0  0
    1.9834  -14.0572    0.0000 O   0  0
    2.6991  -14.4678    0.0000 C   0  0
    3.4125  -14.0534    0.0000 C   0  0
    3.4103  -13.2283    0.0000 O   0  0
    4.1237  -12.8139    0.0000 C   0  0
    4.8393  -13.2245    0.0000 C   0  0
    4.8415  -14.0496    0.0000 N   0  0
    5.5572  -14.4602    0.0000 C   0  0
    6.2706  -14.0458    0.0000 C   0  0
    5.5594  -15.2852    0.0000 O   0  0
    6.2684  -13.2207    0.0000 C   0  0
    6.9818  -12.8063    0.0000 C   0  0
    7.6974  -13.2169    0.0000 C   0  0
    7.6996  -14.0420    0.0000 C   0  0
    8.4153  -14.4526    0.0000 N   0  0
    8.4175  -15.2776    0.0000 C   0  0
    9.1330  -15.6883    0.0000 C   0  0
    7.7040  -15.6921    0.0000 O   0  0
    9.1352  -16.5133    0.0000 O   0  0
    9.8509  -16.9239    0.0000 C   0  0
    9.8501  -17.7481    0.0000 C   0  0
   10.5648  -18.1586    0.0000 C   0  0
   11.2744  -16.9148    0.0000 C   0  0
   10.5590  -16.5080    0.0000 C   0  0
 27 32  1  0
 28 29  1  0
 29 30  2  0
 30 31  1  0
 31 32  2  0
 14 15  2  0
 32 33  1  0
 15 16  1  0
 33 34  1  0
 16 12  2  0
 34 35  1  0
  3  4  1  0
 35 36  1  0
 16 17  1  0
 35 37  1  6
 17 18  2  0
 36 38  1  0
  4  5  2  0
 38 39  1  0
 39 40  1  0
  7 10  1  0
 40 41  1  0
  8  9  1  0
 41 42  1  0
 18 19  1  0
 42 43  1  0
 19 20  2  0
 43 44  1  0
 20 21  1  0
 44 45  1  0
 21 17  1  0
 45 46  1  0
  9 13  2  0
 46 47  1  0
 10 22  1  0
 47 48  1  0
 23 24  1  0
 48 49  1  0
 12 10  1  0
 48 50  2  0
  2  3  2  0
 49 51  1  0
 10 11  1  0
 51 52  1  0
 12 13  1  0
 52 53  1  0
 23 26  2  0
 53 54  1  0
 24 25  2  0
 54 55  1  0
 25 28  1  0
 55 56  1  0
 27 26  1  0
 56 57  1  0
 27 28  2  0
 56 58  2  0
  5  6  1  0
 57 59  1  0
  6  8  2  0
 59 60  1  0
  7  4  1  0
 60 61  2  0
  7  8  1  0
 61 62  1  0
 62  1  2  0
  1  2  1  0
  1 63  1  0
 13 14  1  0
 63 64  2  0
 64 60  1  0
M  CHG  2  10  -1  12   1
M  END