
  SciTegic04181614082D

 74 79  0  0  0  0            999 V2000
   -3.0700   -1.1200    0.0000 N   0  0
   -4.4200   -1.7300    0.0000 C   0  0
    5.5300    0.3300    0.0000 C   0  0  1  0  0  0
    6.0300   -1.0800    0.0000 C   0  0
    7.4900   -1.0800    0.0000 C   0  0
    7.9400    0.3300    0.0000 C   0  0
    6.6900    1.2100    0.0000 N   0  0
    1.9500   -0.6700    0.0000 C   0  0  2  0  0  0
    1.3500   -2.0400    0.0000 C   0  0
    2.4400   -3.0300    0.0000 C   0  0
    3.7100   -2.3100    0.0000 C   0  0
    3.4100   -0.8000    0.0000 N   0  0
   -0.5200   -0.4400    0.0000 N   0  0
   -0.5200   -1.8400    0.0000 C   0  0  2  0  0  0
   -2.0400   -2.4100    0.0000 C   0  0
    0.7404   -2.6507    0.0000 C   0  0
   -2.3591   -3.5668    0.0000 O   0  0
    0.8800    0.1500    0.0000 C   0  0
    1.0326    1.3403    0.0000 O   0  0
   -5.4800   -0.6700    0.0000 C   0  0
   -6.4690   -0.8182    0.0000 O   0  0
   -4.7900    0.6300    0.0000 N   0  0
   -6.1400    1.7500    0.0000 C   0  0  2  0  0  0
   -5.5000    3.1600    0.0000 C   0  0
   -7.6047    1.4465    0.0000 C   0  0
   -8.0778    0.0221    0.0000 C   0  0
   -9.5462   -0.2840    0.0000 C   0  0
  -10.0153   -1.7088    0.0000 C   0  0
   -9.0160   -2.8274    0.0000 C   0  0
   -7.5476   -2.5213    0.0000 C   0  0
   -7.0785   -1.0966    0.0000 C   0  0
   -6.1553    4.1653    0.0000 O   0  0
   -3.6300    3.1800    0.0000 N   0  0
   -1.8700    3.9400    0.0000 C   0  0  2  0  0  0
   -0.3600    2.9400    0.0000 C   0  0
   -1.7161    5.4302    0.0000 C   0  0
   -2.9310    6.3114    0.0000 C   0  0
   -2.8072    7.5050    0.0000 O   0  0
   -4.0267    5.8222    0.0000 N   0  0
   -0.3413    1.7401    0.0000 O   0  0
    0.7700    3.7400    0.0000 N   0  0
    2.0200    2.9400    0.0000 C   0  0  1  0  0  0
    2.0554    1.7405    0.0000 C   0  0
    3.1900    3.7900    0.0000 C   0  0
    4.3800    2.9400    0.0000 N   0  0
    3.1860    4.7900    0.0000 O   0  0
    5.5000    3.7400    0.0000 C   0  0  2  0  0  0
    6.7100    2.9400    0.0000 C   0  0
    5.4524    5.2391    0.0000 C   0  0
    6.7274    6.0308    0.0000 C   0  0
    6.6821    7.5302    0.0000 C   0  0
    7.9579    8.3191    0.0000 C   0  0
    9.2790    7.6088    0.0000 C   0  0
    9.3244    6.1095    0.0000 C   0  0
    8.0486    5.3205    0.0000 C   0  0
    7.7702    3.5021    0.0000 O   0  0
    4.2100    0.6700    0.0000 C   0  0
    3.7315    1.7705    0.0000 O   0  0
    0.6681   -4.1498    0.0000 C   0  0
    1.9297   -4.9627    0.0000 C   0  0
    1.8574   -6.4618    0.0000 N   0  0
    3.1190   -7.2748    0.0000 C   0  0
    3.0612   -8.4734    0.0000 N   0  0
    4.1861   -6.7258    0.0000 N   0  0
   -4.6822   -3.2058    0.0000 C   0  0
   -3.5343   -4.1727    0.0000 C   0  0
   -3.7967   -5.6504    0.0000 C   0  0
   -2.6509   -6.6184    0.0000 C   0  0
   -2.9161   -8.0947    0.0000 C   0  0
   -4.3274   -8.6032    0.0000 C   0  0
   -5.4733   -7.6352    0.0000 C   0  0
   -5.2080   -6.1589    0.0000 C   0  0
    0.9816   -0.9194    0.0000 H   0  0
    4.8549   -0.4078    0.0000 H   0  0
  1  2  1  0
  3  4  1  0
  4  5  1  0
  5  6  1  0
  6  7  1  0
  7  3  1  0
  8  9  1  0
  9 10  1  0
 10 11  1  0
 11 12  1  0
 12  8  1  0
 13 14  1  0
 15 14  1  0
 15  1  1  0
 14 16  1  1
 15 17  2  0
 13 18  1  0
  8 18  1  0
 18 19  2  0
  2 20  1  0
 20 21  2  0
 20 22  1  0
 22 23  1  0
 23 24  1  0
 23 25  1  1
 25 26  1  0
 26 27  2  0
 27 28  1  0
 28 29  2  0
 29 30  1  0
 30 31  2  0
 31 26  1  0
 24 32  2  0
 24 33  1  0
 33 34  1  0
 34 35  1  0
 34 36  1  1
 36 37  1  0
 37 38  2  0
 37 39  1  0
 35 40  2  0
 35 41  1  0
 41 42  1  0
 42 43  1  6
 42 44  1  0
 44 45  1  0
 44 46  2  0
 45 47  1  0
 47 48  1  0
 47 49  1  1
 49 50  1  0
 50 51  2  0
 51 52  1  0
 52 53  2  0
 53 54  1  0
 54 55  2  0
 55 50  1  0
 48 56  2  0
 12 57  1  0
  3 57  1  0
 57 58  2  0
 48  7  1  0
 16 59  1  0
 59 60  1  0
 60 61  1  0
 61 62  1  0
 62 63  2  0
 62 64  1  0
 66 65  1  0
  2 65  1  0
 66 67  1  0
 67 68  2  0
 68 69  1  0
 69 70  2  0
 70 71  1  0
 71 72  2  0
 72 67  1  0
  8 73  1  6
  3 74  1  1
M  END