
  SciTegic12231509382D

 44 47  0  0  1  0            999 V2000
    6.5272    2.4621    0.0000 C   0  0
    5.8062    2.8769    0.0000 C   0  0
    5.0951    1.6374    0.0000 C   0  0
    6.5272    1.6374    0.0000 C   0  0
    3.2430   -1.3161    0.0000 C   0  0  1  0  0  0
    5.0951    2.4621    0.0000 C   0  0
    5.8062    1.2225    0.0000 O   0  0
    2.5565   -0.0517    0.0000 C   0  0  1  0  0  0
    3.2578   -0.4814    0.0000 C   0  0  2  0  0  0
    7.2285    2.8769    0.0000 N   0  0
    1.8355   -0.4567    0.0000 O   0  0
    2.5171   -1.7457    0.0000 C   0  0  2  0  0  0
    1.8059   -1.3111    0.0000 C   0  0
    4.3789    1.2225    0.0000 C   0  0
    7.9545    2.4621    0.0000 C   0  0
    3.6579    1.6374    0.0000 C   0  0
    2.5862    1.0447    0.0000 O   0  0
    3.9492   -1.7457    0.0000 O   0  0
    4.6604   -1.3259    0.0000 C   0  0
    8.6657    2.8769    0.0000 C   0  0
    4.3789    2.8769    0.0000 C   0  0
   10.0978    2.8917    0.0000 C   0  0
    9.3867    2.4769    0.0000 C   0  0
    5.8062    3.6968    0.0000 O   0  0
   11.5499    2.8522    0.0000 C   0  0
    7.2285    1.2225    0.0000 O   0  0
    3.6579    2.4621    0.0000 C   0  0
   10.0880    3.7116    0.0000 C   0  0
    7.9545    1.6374    0.0000 O   0  0
   10.8140    2.4769    0.0000 C   0  0
    4.6604   -0.4419    0.0000 O   0  0
   12.2512    2.4177    0.0000 C   0  0
    8.6608    3.7066    0.0000 C   0  0
    9.3768    4.1215    0.0000 C   0  0
    3.9245   -0.0715    0.0000 O   0  0
    5.3864   -1.7160    0.0000 N   0  0
    2.5023   -2.5408    0.0000 O   0  0
   10.7992    4.1363    0.0000 O   0  0
    1.0058   -1.5975    0.0000 C   0  0
    1.4305   -2.0271    0.0000 C   0  0
    4.3789    0.4026    0.0000 C   0  0
   12.2364    1.6324    0.0000 C   0  0
   12.8981    2.9263    0.0000 C   0  0
    1.7120   -2.8074    0.0000 C   0  0
  2  1  2  0
  3  7  1  0
  4  1  1  0
  5  9  1  0
  6  2  1  0
  7  4  1  0
  8 17  1  1
  9  8  1  0
 10  1  1  0
 11  8  1  0
 12 13  1  0
 13 11  1  0
 14  3  1  0
 15 10  1  0
 16 14  2  0
 17 16  1  0
  5 18  1  6
 19 18  1  0
 20 15  1  0
 21  6  1  0
 22 23  1  0
 23 20  2  0
 24  2  1  0
 25 30  1  0
 26  4  2  0
 27 21  2  0
 28 34  1  0
 29 15  2  0
 30 22  1  0
 31 19  2  0
 32 25  2  0
 33 20  1  0
 34 33  2  0
  9 35  1  6
 36 19  1  0
 12 37  1  1
 38 28  1  0
 39 13  1  0
 40 13  1  0
 41 14  1  0
 42 32  1  0
 43 32  1  0
 44 37  1  0
  3  6  2  0
 16 27  1  0
 22 28  2  0
  5 12  1  0
M  END