
          11280715132D 1   1.00000     0.00000     0

 28 30  0     1  0            999 V2000
    1.1750   -1.6167    0.0000 C   0  0  1  0  0  0           0  0  0
    1.8917   -2.8542    0.0000 C   0  0  0  0  0  0           0  0  0
    0.4625   -1.2042    0.0000 C   0  0  3  0  0  0           0  0  0
    1.8917   -1.2042    0.0000 C   0  0  0  0  0  0           0  0  0
    1.1750   -2.4417    0.0000 O   0  0  0  0  0  0           0  0  0
    1.8875   -3.6792    0.0000 N   0  0  0  0  0  0           0  0  0
    2.6000   -2.4417    0.0000 N   0  0  0  0  0  0           0  0  0
    3.3125   -2.8542    0.0000 C   0  0  0  0  0  0           0  0  0
    2.6000   -4.0917    0.0000 C   0  0  0  0  0  0           0  0  0
   -0.1250   -0.6167    0.0000 C   0  0  0  0  0  0           0  0  0
   -0.2500   -1.6167    0.0000 C   0  0  0  0  0  0           0  0  0
    3.3167   -3.6792    0.0000 C   0  0  0  0  0  0           0  0  0
    1.8917   -0.3792    0.0000 O   0  0  0  0  0  0           0  0  0
    1.0417   -0.6167    0.0000 O   0  0  0  0  0  0           0  0  0
    2.6042   -1.6167    0.0000 O   0  0  0  0  0  0           0  0  0
    2.6000   -4.9167    0.0000 C   0  0  0  0  0  0           0  0  0
    4.0250   -2.4375    0.0000 C   0  0  0  0  0  0           0  0  0
   -0.9708   -1.2042    0.0000 C   0  0  0  0  0  0           0  0  0
   -0.2500   -2.4375    0.0000 C   0  0  0  0  0  0           0  0  0
    0.0917    0.1958    0.0000 C   0  0  0  0  0  0           0  0  0
   -0.9333   -0.8292    0.0000 C   0  0  0  0  0  0           0  0  0
    0.8250    0.1833    0.0000 C   0  0  0  0  0  0           0  0  0
   -0.4958    0.7833    0.0000 C   0  0  0  0  0  0           0  0  0
   -1.5208   -0.2417    0.0000 C   0  0  0  0  0  0           0  0  0
   -1.6833   -1.6167    0.0000 C   0  0  0  0  0  0           0  0  0
   -0.9625   -2.8542    0.0000 C   0  0  0  0  0  0           0  0  0
   -1.3083    0.5708    0.0000 C   0  0  0  0  0  0           0  0  0
   -1.6833   -2.4417    0.0000 C   0  0  0  0  0  0           0  0  0
  2  5  1  0     0  0
  3  1  1  0     0  0
  4  1  1  0     0  0
  1  5  1  1     0  0
  6  2  2  0     0  0
  7  2  1  0     0  0
  8  7  2  0     0  0
  9  6  1  0     0  0
 10  3  1  0     0  0
 11  3  1  0     0  0
 12  8  1  0     0  0
 13  4  2  0     0  0
 14  3  1  0     0  0
 15  4  1  0     0  0
 16  9  1  0     0  0
 17  8  1  0     0  0
 18 11  2  0     0  0
 19 11  1  0     0  0
 20 10  2  0     0  0
 21 10  1  0     0  0
 22 14  1  0     0  0
 23 20  1  0     0  0
 24 21  2  0     0  0
 25 18  1  0     0  0
 26 19  2  0     0  0
 27 24  1  0     0  0
 28 26  1  0     0  0
  9 12  2  0     0  0
 25 28  2  0     0  0
 23 27  2  0     0  0
M  END