
  SciTegic06181315362D

 37 39  0  0  0  0            999 V2000
   24.3233  -12.1873    0.0000 C   0  0
   24.3222  -13.0146    0.0000 C   0  0
   25.0369  -13.4276    0.0000 C   0  0
   25.7534  -13.0142    0.0000 C   0  0
   25.7506  -12.1837    0.0000 C   0  0
   25.0352  -11.7745    0.0000 C   0  0
   23.6087  -11.7750    0.0000 O   0  0
   22.8944  -12.1876    0.0000 C   0  0
   22.8946  -13.0126    0.0000 C   0  0
   22.1802  -13.4253    0.0000 O   0  0
   26.4685  -13.4256    0.0000 O   0  0
   27.1823  -13.0119    0.0000 C   0  0
   27.8975  -13.4233    0.0000 C   0  0
   28.6112  -13.0097    0.0000 C   0  0
   27.8988  -14.2483    0.0000 O   0  0
   29.3264  -13.4211    0.0000 N   0  0
   30.0401  -13.0075    0.0000 C   0  0
   30.7553  -13.4189    0.0000 C   0  0
   31.4691  -13.0053    0.0000 N   0  0
   32.1842  -13.4166    0.0000 C   0  0
   32.8980  -13.0030    0.0000 N   0  0
   32.1855  -14.2416    0.0000 O   0  0
   33.6131  -13.4143    0.0000 C   0  0
   33.6107  -14.2384    0.0000 C   0  0
   34.3249  -14.6497    0.0000 C   0  0
   35.0397  -14.2361    0.0000 C   0  0
   35.0357  -13.4068    0.0000 C   0  0
   34.3209  -12.9992    0.0000 C   0  0
   21.4655  -13.0134    0.0000 C   0  0
   21.4764  -12.1876    0.0000 C   0  0
   20.7021  -11.9225    0.0000 C   0  0
   20.2076  -12.5831    0.0000 C   0  0
   20.6787  -13.2566    0.0000 C   0  0
   34.3158  -12.1743    0.0000 C   0  0
   35.0278  -11.7574    0.0000 F   0  0
   33.5989  -11.7661    0.0000 F   0  0
   34.3080  -11.3457    0.0000 F   0  0
  1  2  2  0
  2  3  1  0
  3  4  2  0
  4  5  1  0
  5  6  2  0
  6  1  1  0
  1  7  1  0
  7  8  1  0
  8  9  1  0
  9 10  1  0
  4 11  1  0
 11 12  1  0
 12 13  1  0
 13 14  1  0
 13 15  1  0
 14 16  1  0
 16 17  1  0
 17 18  1  0
 18 19  1  0
 19 20  1  0
 20 21  1  0
 20 22  2  0
 21 23  1  0
 23 24  2  0
 24 25  1  0
 25 26  2  0
 26 27  1  0
 27 28  2  0
 28 23  1  0
 10 29  1  0
 29 30  1  0
 30 31  1  0
 31 32  1  0
 32 33  1  0
 33 29  1  0
 28 34  1  0
 34 35  1  0
 34 36  1  0
 34 37  1  0
M  END