
  SciTegic12091219252D

 21 22  0  0  0  0            999 V2000
    5.9917   -6.9917    0.0000 N   0  0
    6.6167   -6.6375    0.0000 C   0  0
    7.2292   -6.9917    0.0000 N   0  0
    5.3792   -6.6375    0.0000 C   0  0
    5.9917   -7.7042    0.0000 C   0  0
    4.7667   -6.9875    0.0000 C   0  0
    5.3792   -8.7667    0.0000 N   0  0
    5.3875   -8.0542    0.0000 C   0  0
    3.5292   -7.6917    0.0000 C   0  0
    4.7667   -7.7000    0.0000 C   0  0
    4.1542   -6.6417    0.0000 C   0  0
    3.5375   -6.9917    0.0000 C   0  0
    4.1542   -8.0542    0.0000 C   0  0
    2.9125   -8.0542    0.0000 O   0  0
    6.6167   -5.9375    0.0000 C   0  0
    7.8500   -6.6375    0.0000 C   0  0
    4.7667   -9.1250    0.0000 C   0  0
    6.0000   -9.1292    0.0000 C   0  0
    2.3000   -7.7042    0.0000 C   0  0
    7.2375   -5.5750    0.0000 C   0  0
    7.8500   -5.9250    0.0000 C   0  0
  2  1  1  0
  3  2  2  0
  4  1  1  0
  5  1  1  0
  6  4  1  0
  7  8  1  0
  8  5  1  0
  9 12  2  0
 10  6  1  0
 11  6  2  0
 12 11  1  0
 13 10  2  0
 14  9  1  0
 15  2  1  0
 16  3  1  0
 17  7  1  0
 18  7  1  0
 19 14  1  0
 20 15  2  0
 21 16  2  0
  9 13  1  0
 20 21  1  0
M  END