
  SciTegic01091215432D

 63 68  0  0  0  0            999 V2000
   12.3133  -24.9456    0.0000 C   0  0
   13.0304  -25.3534    0.0000 C   0  0
   13.7422  -24.9362    0.0000 C   0  0
   14.4245  -25.4000    0.0000 C   0  0
   14.4549  -26.2224    0.0000 C   0  0
   15.2471  -26.4526    0.0000 C   0  0
   15.2051  -25.1184    0.0000 N   0  0
   15.7072  -25.7713    0.0000 C   0  0
   16.5191  -25.6635    0.0000 C   0  0
   15.5150  -24.3578    0.0000 B   0  5
   15.5076  -23.5314    0.0000 F   0  0
   16.3333  -24.2509    0.0000 N   0  3
   16.8347  -24.9004    0.0000 C   0  0
   17.6074  -24.6242    0.0000 C   0  0
   17.5835  -23.8039    0.0000 C   0  0
   16.7961  -23.5733    0.0000 C   0  0
   16.5183  -22.7965    0.0000 C   0  0
   16.9797  -22.1158    0.0000 C   0  0
   16.4755  -21.4628    0.0000 C   0  0
   15.6986  -21.7406    0.0000 C   0  0
   15.7228  -22.5652    0.0000 S   0  0
   14.7951  -23.9439    0.0000 F   0  0
   -1.9760  -21.6875    0.0000 C   0  0
   -1.9749  -22.5125    0.0000 C   0  0
   -1.2639  -22.9218    0.0000 C   0  0
   -0.5493  -22.5107    0.0000 C   0  0
   -0.5504  -21.6857    0.0000 C   0  0
   -1.2660  -21.2718    0.0000 C   0  0
   -1.2682  -20.4468    0.0000 O   0  0
   -0.5548  -20.0324    0.0000 C   0  0
    0.1608  -20.4430    0.0000 C   0  0
    0.8741  -20.0286    0.0000 C   0  0
    0.1630  -21.2680    0.0000 O   0  0
    1.5897  -20.4392    0.0000 N   0  0
    2.3031  -20.0248    0.0000 C   0  0
    3.0186  -20.4354    0.0000 C   0  0
    3.0208  -21.2604    0.0000 O   0  0
    3.7364  -21.6710    0.0000 C   0  0
    4.4498  -21.2566    0.0000 C   0  0
    4.4476  -20.4316    0.0000 O   0  0
    5.1609  -20.0172    0.0000 C   0  0
    5.8765  -20.4278    0.0000 C   0  0
    5.8787  -21.2528    0.0000 N   0  0
    6.5943  -21.6634    0.0000 C   0  0
    7.3077  -21.2490    0.0000 C   0  0
    6.5965  -22.4884    0.0000 O   0  0
    7.3055  -20.4240    0.0000 C   0  0
    8.0188  -20.0096    0.0000 C   0  0
    8.7344  -20.4201    0.0000 C   0  0
    8.7366  -21.2451    0.0000 C   0  0
    9.4522  -21.6557    0.0000 N   0  0
    9.4544  -22.4807    0.0000 C   0  0
   10.1699  -22.8913    0.0000 C   0  0
    8.7410  -22.8951    0.0000 O   0  0
   10.1721  -23.7163    0.0000 O   0  0
   10.8877  -24.1269    0.0000 C   0  0
   10.8869  -24.9511    0.0000 C   0  0
   11.6016  -25.3616    0.0000 C   0  0
   12.3111  -24.1179    0.0000 C   0  0
   11.5958  -23.7111    0.0000 C   0  0
   -2.6919  -21.2776    0.0000 C   0  0
   -3.4049  -21.6928    0.0000 C   0  0
   -4.1209  -21.2829    0.0000 C   0  0
 29 30  1  0
  1  2  1  0
 30 31  1  0
 13 14  1  0
 31 32  1  0
 14 15  2  0
 31 33  1  0
 15 16  1  0
 32 34  1  0
 16 12  2  0
 34 35  1  0
  3  4  1  0
 35 36  1  0
 16 17  1  0
 36 37  1  0
 17 18  2  0
 37 38  1  0
  4  5  2  0
 38 39  1  0
 39 40  1  0
  7 10  1  0
 40 41  1  0
  8  9  1  0
 41 42  1  0
 18 19  1  0
 42 43  1  0
 19 20  2  0
 43 44  1  0
 20 21  1  0
 44 45  1  0
 21 17  1  0
 44 46  2  0
  9 13  2  0
 45 47  1  0
 10 22  1  0
 47 48  1  0
 23 24  2  0
 48 49  1  0
 12 10  1  0
 49 50  1  0
  2  3  2  0
 50 51  1  0
 10 11  1  0
 51 52  1  0
 12 13  1  0
 52 53  1  0
  5  6  1  0
 52 54  2  0
  6  8  2  0
 53 55  1  0
 23 28  1  0
 55 56  1  0
 24 25  1  0
 56 57  2  0
 25 26  2  0
 57 58  1  0
 58  1  2  0
 26 27  1  0
  1 59  1  0
 27 28  2  0
 59 60  2  0
 60 56  1  0
  7  4  1  0
 23 61  1  0
 28 29  1  0
 61 62  1  0
  7  8  1  0
 62 63  2  0
M  CHG  2  10  -1  12   1
M  END