
  SciTegic02271514372D

 63 65  0  0  0  0            999 V2000
    5.5998   -5.9722    0.0000 C   0  0  1  0  0  0
    5.5774   -5.1499    0.0000 C   0  0
    6.2776   -4.7182    0.0000 C   0  0
    6.2551   -3.8959    0.0000 C   0  0
   14.8909   -7.2128    0.0000 O   0  0
   16.3165   -3.9160    0.0000 C   0  0
   14.8895   -4.7376    0.0000 C   0  0
   12.7448   -5.9731    0.0000 C   0  0
   14.8909   -6.3877    0.0000 C   0  0
    6.3147   -7.2128    0.0000 O   0  0
   12.0294   -6.3877    0.0000 C   0  0  2  0  0  0
    9.1763   -6.3877    0.0000 N   0  0
    4.1735   -5.9743    0.0000 C   0  0
    8.4609   -5.9731    0.0000 C   0  0
    7.7413   -7.2128    0.0000 C   0  0
   11.3126   -5.1481    0.0000 C   0  0
   11.3140   -5.9731    0.0000 N   0  0
   14.8869   -3.9178    0.0000 C   0  0
   14.1755   -5.9731    0.0000 C   0  0  1  0  0  0
    8.4595   -8.4483    0.0000 C   0  0
   12.7434   -8.4483    0.0000 C   0  0
   10.6029   -7.2128    0.0000 O   0  0
    3.4602   -6.3901    0.0000 O   0  0
   15.6021   -5.9731    0.0000 O   0  0
   12.0294   -7.2128    0.0000 C   0  0
    9.8874   -5.1481    0.0000 C   0  0
    9.1735   -7.2128    0.0000 C   0  0
   16.3160   -4.7419    0.0000 C   0  0
   13.4574   -7.2128    0.0000 C   0  0
   15.6025   -5.1517    0.0000 C   0  0
    7.7413   -6.3877    0.0000 C   0  0  1  0  0  0
   10.6015   -3.9125    0.0000 C   0  0
    8.4609   -5.1481    0.0000 O   0  0
    2.7456   -5.9767    0.0000 C   0  0
    8.4595   -7.6233    0.0000 C   0  0
    4.1721   -5.1493    0.0000 O   0  0
    6.3147   -6.3877    0.0000 C   0  0
   13.4601   -6.3877    0.0000 N   0  0
    2.0281   -6.3925    0.0000 C   0  0
   12.0280   -3.9125    0.0000 C   0  0
   15.5974   -3.5016    0.0000 C   0  0
    9.8874   -5.9731    0.0000 C   0  0  1  0  0  0
   12.7448   -5.1481    0.0000 O   0  0
   10.6029   -6.3877    0.0000 C   0  0
   10.6015   -4.7376    0.0000 C   0  0
    2.0239   -5.5626    0.0000 C   0  0
    7.0260   -5.9731    0.0000 N   0  0
   14.1755   -5.1481    0.0000 C   0  0
    2.7442   -5.1517    0.0000 C   0  0
   12.0280   -4.7376    0.0000 C   0  0
    4.8882   -6.3877    0.0000 N   0  0
   12.7434   -7.6233    0.0000 C   0  0
   11.3126   -3.4979    0.0000 C   0  0
    6.9550   -3.4660    0.0000 C   0  0
    6.9326   -2.6450    0.0000 N   0  0
    7.6325   -2.2150    0.0000 C   0  0
    7.6101   -1.3939    0.0000 O   0  0
    8.3547   -2.6062    0.0000 C   0  0
    8.3744   -3.4273    0.0000 C   0  0
    9.0958   -3.8184    0.0000 C   0  0
    9.7967   -3.3885    0.0000 C   0  0
    9.7715   -2.5632    0.0000 C   0  0
    9.0497   -2.1759    0.0000 C   0  0
  1  2  1  0
  2  3  1  0
  3  4  1  0
  9 24  1  0
  6 41  1  0
 52 21  1  0
 35 20  1  0
 32 45  2  0
 48  7  1  0
 44 17  1  0
 37 10  2  0
 50 40  1  0
 31 14  1  0
 34 49  1  0
 37 47  1  0
 34 39  1  0
 35 27  1  0
 11  8  1  0
 28  6  2  0
 17 11  1  0
 34 46  1  0
 52 29  1  0
 11 25  1  1
 13 23  1  0
 12 42  1  0
 38 19  1  0
 23 34  1  0
 15 35  1  0
 16 50  2  0
 18  7  1  0
 19  9  1  0
 19 48  1  1
 31 15  1  1
 30 28  1  0
  8 38  1  0
 14 12  1  0
 45 16  1  0
  8 43  2  0
 41 18  2  0
  7 30  2  0
 42 26  1  1
 40 53  2  0
 26 45  1  0
 14 33  2  0
 13 36  2  0
 25 52  1  0
 42 44  1  0
 51  1  1  0
  1 37  1  1
 47 31  1  0
 44 22  2  0
 53 32  1  0
 51 13  1  0
  9  5  2  0
  4 54  1  0
 54 55  1  0
 55 56  1  0
 56 57  2  0
 56 58  1  0
 58 59  1  0
 59 60  1  0
 60 61  1  0
 61 62  1  0
 62 63  1  0
 63 58  1  0
M  END