
  SciTegic02271515072D

 49 53  0  0  0  0            999 V2000
   -0.6500  -16.4729    0.0000 N   0  0
   -0.9114  -17.2298    0.0000 C   0  0  1  0  0  0
    0.0660  -16.2344    0.0000 C   0  0
   -1.1470  -15.7631    0.0000 C   0  0
   -0.4697  -17.8728    0.0000 C   0  0  1  0  0  0
   -1.7061  -17.4729    0.0000 O   0  0
    0.0679  -15.3304    0.0000 C   0  0
    0.7815  -16.6658    0.0000 N   0  0
   -0.6396  -15.0845    0.0000 N   0  0
   -0.9455  -18.5229    0.0000 C   0  0  1  0  0  0
    0.3095  -18.1384    0.0000 O   0  0
   -1.7192  -18.2703    0.0000 C   0  0  1  0  0  0
    0.7671  -14.9326    0.0000 C   0  0
    1.5260  -16.2467    0.0000 C   0  0
   -0.4798  -19.1948    0.0000 O   0  0
   -2.3673  -18.7394    0.0000 C   0  0
    1.5309  -15.3715    0.0000 N   0  0
    0.7698  -14.1224    0.0000 N   0  0
   -3.0172  -18.2803    0.0000 N   0  0
    2.2341  -16.6659    0.0000 N   0  0
    2.9496  -16.2598    0.0000 C   0  0
    3.6577  -16.6790    0.0000 C   0  0
    4.3733  -16.2728    0.0000 C   0  0
    5.0768  -16.6954    0.0000 C   0  0
    5.7877  -16.2899    0.0000 C   0  0
    5.7957  -15.4678    0.0000 C   0  0
    5.0868  -15.0528    0.0000 C   0  0
    4.3746  -15.4566    0.0000 C   0  0
    6.5107  -15.0648    0.0000 C   0  0
    7.2193  -15.4789    0.0000 C   0  0
    7.9343  -15.0759    0.0000 C   0  0
    8.6429  -15.4901    0.0000 N   0  0
    7.9408  -14.2546    0.0000 O   0  0
   -2.3581  -19.5607    0.0000 O   0  0
   -3.0243  -17.4589    0.0000 C   0  0
   -3.7316  -17.0473    0.0000 C   0  0
    9.3528  -15.0852    0.0000 C   0  0
   10.0574  -15.5008    0.0000 C   0  0
   10.7668  -15.0967    0.0000 C   0  0
   10.7716  -14.2786    0.0000 C   0  0
   10.0611  -13.8664    0.0000 C   0  0
    9.3546  -14.2729    0.0000 C   0  0
   11.4764  -15.5112    0.0000 N   0  3
   12.1865  -15.1067    0.0000 O   0  0
   11.4717  -16.3284    0.0000 O   0  5
   11.4809  -13.8729    0.0000 O   0  0
   11.4842  -13.0557    0.0000 C   0  0
   12.1935  -12.6499    0.0000 C   0  0
   10.7781  -12.6443    0.0000 O   0  0
  2  1  1  1
  1  3  1  0
  1  4  1  0
  5  2  1  0
  2  6  1  0
  3  7  2  0
  3  8  1  0
  4  9  2  0
  5 10  1  0
  5 11  1  6
  6 12  1  0
  7 13  1  0
  8 14  2  0
 10 15  1  6
 12 16  1  1
 13 17  2  0
 13 18  1  0
 16 19  1  0
  7  9  1  0
 10 12  1  0
 14 17  1  0
 14 20  1  0
 20 21  1  0
 21 22  1  0
 22 23  1  0
 23 24  2  0
 24 25  1  0
 25 26  2  0
 26 27  1  0
 27 28  2  0
 28 23  1  0
 26 29  1  0
 29 30  1  0
 30 31  1  0
 31 32  1  0
 31 33  2  0
 16 34  2  0
 19 35  1  0
 35 36  1  0
 32 37  1  0
 37 38  2  0
 38 39  1  0
 39 40  2  0
 40 41  1  0
 41 42  2  0
 42 37  1  0
 43 44  2  0
 43 45  1  0
 39 43  1  0
 40 46  1  0
 46 47  1  0
 47 48  1  0
 47 49  2  0
M  CHG  2  43   1  45  -1
M  END