
  SciTegic06211117172D

 38 39  0  0  0  0            999 V2000
   -2.9759    1.5911    0.0000 C   0  0
   -3.6904    1.1786    0.0000 C   0  0
   -3.6904    0.3536    0.0000 C   0  0
   -2.9759   -0.0589    0.0000 C   0  0
   -2.2614    0.3536    0.0000 C   0  0
   -2.2614    1.1786    0.0000 C   0  0
   -2.9759   -0.8839    0.0000 C   0  0
   -2.2614   -1.2964    0.0000 O   0  0
   -3.6904   -1.2964    0.0000 O   0  0
   -1.5469    1.5911    0.0000 C   0  0  2  0  0  0
   -0.8325    1.1786    0.0000 N   0  0
   -0.1180    1.5911    0.0000 C   0  0
    0.5965    1.1786    0.0000 C   0  0  1  0  0  0
    1.3110    1.5911    0.0000 C   0  0
    2.0254    1.1786    0.0000 P   0  0
    2.7399    1.5911    0.0000 C   0  0
    3.4544    1.1786    0.0000 C   0  0
    4.1688    1.5911    0.0000 C   0  0
    4.8833    1.1786    0.0000 C   0  0
    5.5978    1.5911    0.0000 C   0  0
    6.3123    1.1786    0.0000 N   0  0
    7.0267    1.5911    0.0000 C   0  0
    7.7412    1.1786    0.0000 C   0  0
    7.7412    0.3536    0.0000 C   0  0
    8.4557   -0.0589    0.0000 C   0  0
    9.1701    0.3536    0.0000 C   0  0
    9.1702    1.1786    0.0000 C   0  0
    8.4557    1.5911    0.0000 C   0  0
    8.4557    2.4161    0.0000 O   0  0
    9.8846   -0.0589    0.0000 N   0  0
   10.0981   -0.8558    0.0000 N   0  3
   10.0981   -1.6808    0.0000 N   0  5
    8.4557   -0.8839    0.0000 I   0  0
    7.0267    2.4161    0.0000 O   0  0
   -1.5469    2.4161    0.0000 C   0  0
    0.5965    0.3536    0.0000 O   0  0
    2.0254    2.0036    0.0000 O   0  0
    2.0254    0.3536    0.0000 O   0  0
  1  2  1  0
  1  6  2  0
  2  3  2  0
  3  4  1  0
  4  5  2  0
  5  6  1  0
  4  7  1  0
  7  8  1  0
  7  9  2  0
  6 10  1  0
 10 11  1  0
 11 12  1  0
 12 13  1  0
 13 14  1  0
 14 15  1  0
 15 16  1  0
 16 17  1  0
 17 18  1  0
 18 19  1  0
 19 20  1  0
 20 21  1  0
 21 22  1  0
 22 23  1  0
 23 24  1  0
 23 28  2  0
 24 25  2  0
 25 26  1  0
 26 27  2  0
 27 28  1  0
 28 29  1  0
 26 30  1  0
 30 31  2  0
 31 32  2  0
 25 33  1  0
 22 34  2  0
 10 35  1  1
 13 36  1  1
 15 37  2  0
 15 38  1  0
M  CHG  2  31   1  32  -1
M  ISO  1  33 125
M  END