
  SciTegic06181315362D

 34 36  0  0  0  0            999 V2000
   23.9483   -5.0333    0.0000 C   0  0
   23.9471   -5.8606    0.0000 C   0  0
   24.6620   -6.2735    0.0000 C   0  0
   25.3785   -5.8601    0.0000 C   0  0
   25.3755   -5.0297    0.0000 C   0  0
   24.6602   -4.6205    0.0000 C   0  0
   23.2338   -4.6209    0.0000 O   0  0
   22.5194   -5.0336    0.0000 C   0  0
   22.5196   -5.8586    0.0000 C   0  0
   21.8053   -6.2712    0.0000 O   0  0
   26.0935   -6.2715    0.0000 O   0  0
   26.8074   -5.8579    0.0000 C   0  0
   27.5224   -6.2693    0.0000 C   0  0
   28.2363   -5.8557    0.0000 C   0  0
   27.5237   -7.0943    0.0000 O   0  0
   28.9513   -6.2671    0.0000 N   0  0
   29.6652   -5.8534    0.0000 C   0  0
   30.3802   -6.2647    0.0000 C   0  0
   31.0941   -5.8511    0.0000 N   0  0
   31.8093   -6.2625    0.0000 C   0  0
   32.5230   -5.8489    0.0000 N   0  0
   31.8105   -7.0875    0.0000 O   0  0
   33.2382   -6.2603    0.0000 C   0  0
   33.2356   -7.0844    0.0000 C   0  0
   33.9499   -7.4957    0.0000 C   0  0
   34.6648   -7.0820    0.0000 C   0  0
   34.6608   -6.2527    0.0000 C   0  0
   33.9460   -5.8452    0.0000 C   0  0
   21.0906   -5.8593    0.0000 C   0  0
   21.1015   -5.0336    0.0000 C   0  0
   20.3272   -4.7684    0.0000 C   0  0
   19.8326   -5.4290    0.0000 C   0  0
   20.3037   -6.1025    0.0000 C   0  0
   35.3804   -7.4924    0.0000 Cl  0  0
  1  2  2  0
  2  3  1  0
  3  4  2  0
  4  5  1  0
  5  6  2  0
  6  1  1  0
  1  7  1  0
  7  8  1  0
  8  9  1  0
  9 10  1  0
  4 11  1  0
 11 12  1  0
 12 13  1  0
 13 14  1  0
 13 15  1  0
 14 16  1  0
 16 17  1  0
 17 18  1  0
 18 19  1  0
 19 20  1  0
 20 21  1  0
 20 22  2  0
 21 23  1  0
 23 24  2  0
 24 25  1  0
 25 26  2  0
 26 27  1  0
 27 28  2  0
 28 23  1  0
 10 29  1  0
 29 30  1  0
 30 31  1  0
 31 32  1  0
 32 33  1  0
 33 29  1  0
 26 34  1  0
M  END