
  SciTegic01201417202D

 80 85  0  0  1  0            999 V2000
    5.6301   -4.5528    0.0000 N   0  0
   -5.1261   -4.2173    0.0000 N   0  0
    5.8016   -5.3598    0.0000 C   0  0
    5.2748   -6.7323    0.0000 N   0  0
   -4.4117   -4.6298    0.0000 C   0  0
   -5.2124   -3.3968    0.0000 C   0  0  1  0  0  0
    5.9893   -7.1448    0.0000 C   0  0
    4.8764   -4.2173    0.0000 C   0  0  2  0  0  0
    5.1886   -5.9118    0.0000 C   0  0  1  0  0  0
   -2.9827   -4.6298    0.0000 N   0  0
   -2.2683   -4.2173    0.0000 C   0  0
   -1.5538   -4.6298    0.0000 C   0  0  1  0  0  0
   -0.1249   -4.6298    0.0000 C   0  0
   -0.8393   -4.2173    0.0000 N   0  0
   -5.8798   -4.5528    0.0000 C   0  0
   -6.0194   -3.2253    0.0000 C   0  0
    6.7037   -9.2073    0.0000 C   0  0
    6.7037   -8.3823    0.0000 N   0  0
    4.1620   -4.6298    0.0000 C   0  0
   -3.6972   -4.2173    0.0000 C   0  0
   -4.5993   -2.8448    0.0000 C   0  0
    0.5896   -4.2173    0.0000 C   0  0  1  0  0  0
    5.9893   -7.9698    0.0000 C   0  0  1  0  0  0
   -6.4319   -3.9397    0.0000 C   0  0
    9.5616  -11.6823    0.0000 C   0  0
    1.3041   -4.6298    0.0000 N   0  0
    6.1822   -3.9397    0.0000 C   0  0
    4.9627   -3.3968    0.0000 C   0  0
   -0.1249   -2.9798    0.0000 C   0  0
    0.5896   -3.3923    0.0000 C   0  0
    2.0186   -4.2173    0.0000 C   0  0
    3.4475   -4.2173    0.0000 N   0  0
   -0.2111   -2.1593    0.0000 S   0  0
    6.5863   -5.6147    0.0000 O   0  0
    3.8458  -10.8573    0.0000 C   0  0
   -4.8966   -5.2972    0.0000 O   0  0
   -2.9827   -5.4548    0.0000 C   0  0
   10.2761  -12.0948    0.0000 N   0  0
    6.7037   -6.7323    0.0000 O   0  0
   -2.2683   -3.3923    0.0000 O   0  0
   -0.1249   -5.4548    0.0000 O   0  0
    5.9893   -9.6198    0.0000 O   0  0
    5.7697   -3.2253    0.0000 C   0  0  1  0  0  0
   -1.0181   -1.9878    0.0000 C   0  0
    4.1620   -5.4548    0.0000 O   0  0
   -4.7708   -2.0378    0.0000 O   0  0
   -0.8785   -3.3153    0.0000 C   0  0
   -1.4306   -2.7022    0.0000 C   0  0
    2.0186   -3.3923    0.0000 O   0  0
    7.4182   -9.6198    0.0000 C   0  0  2  0  0  0
    8.8471  -12.0948    0.0000 N   0  0
    2.7330   -4.6298    0.0000 C   0  0
    9.5616  -10.8573    0.0000 N   0  0
    4.5211   -7.0679    0.0000 C   0  0
    4.5603  -10.4448    0.0000 N   0  0
    3.1314  -10.4448    0.0000 N   0  0
    3.8458  -11.6823    0.0000 N   0  0
   -3.8147   -3.0997    0.0000 O   0  0
   -1.5538   -5.4548    0.0000 C   0  0
    8.1327   -9.2073    0.0000 N   0  0
   -3.6972   -5.8673    0.0000 C   0  0
    4.3816   -5.7403    0.0000 C   0  0
    6.1052   -2.4716    0.0000 O   0  0
   -6.1348   -5.3375    0.0000 C   0  0
   -0.8393   -5.8673    0.0000 O   0  0
    3.9691   -6.4548    0.0000 C   0  0
   -7.2388   -4.1113    0.0000 C   0  0
    5.2748   -8.3823    0.0000 C   0  0
    8.1327  -11.6823    0.0000 C   0  0
    4.5603   -9.6198    0.0000 C   0  0
    7.4182  -10.4448    0.0000 C   0  0
   -4.4117   -5.4548    0.0000 C   0  0
   -3.6972   -6.6923    0.0000 C   0  0
    5.2748   -9.2073    0.0000 C   0  0
    8.1327  -10.8573    0.0000 C   0  0
   -6.9417   -5.5090    0.0000 C   0  0
   -7.4938   -4.8959    0.0000 C   0  0
   -4.4117   -7.1048    0.0000 C   0  0
   -5.1261   -5.8673    0.0000 C   0  0
   -5.1261   -6.6923    0.0000 C   0  0
  2  5  1  0
  3  1  1  0
  4  9  1  0
  5 20  1  0
  6  2  1  0
  7  4  1  0
  8  1  1  0
  9  3  1  1
 10 11  1  0
 11 12  1  0
 12 14  1  0
 13 22  1  0
 14 13  1  0
 15  2  1  0
 16  6  1  0
 17 18  1  0
 18 23  1  0
  8 19  1  6
 20 10  1  0
  6 21  1  1
 22 26  1  0
 23  7  1  0
 24 15  1  0
 25 51  2  0
 26 31  1  0
 27  1  1  0
 28  8  1  0
 29 30  1  0
 22 30  1  6
 31 52  1  0
 32 19  1  0
 33 29  1  0
 34  3  2  0
 35 55  1  0
 36  5  2  0
 37 10  1  0
 38 25  1  0
 39  7  2  0
 40 11  2  0
 41 13  2  0
 42 17  2  0
 43 27  1  0
 44 33  1  0
 45 19  2  0
 46 21  2  0
 47 29  2  0
 48 47  1  0
 49 31  2  0
 50 17  1  0
 51 69  1  0
 52 32  1  0
 53 25  1  0
 54  4  1  0
 55 70  1  0
 56 35  1  0
 57 35  1  0
 58 21  1  0
 12 59  1  1
 60 50  1  0
 61 37  1  0
 62  9  1  0
 43 63  1  1
 64 15  1  0
 65 59  1  0
 66 62  1  0
 67 24  1  0
 23 68  1  1
 69 75  1  0
 70 74  1  0
 50 71  1  6
 72 61  2  0
 73 61  1  0
 74 68  1  0
 75 71  1  0
 76 64  1  0
 77 76  1  0
 78 73  2  0
 79 72  1  0
 80 78  1  0
 28 43  1  0
 54 66  1  0
 48 44  2  0
 80 79  2  0
 24 16  1  0
 77 67  1  0
M  END