
  SciTegic12091219282D

 42 45  0  0  1  0            999 V2000
    7.6000   -2.8000    0.0000 N   0  0
    8.2417   -2.4250    0.0000 C   0  0  2  0  0  0
    4.5417   -2.4542    0.0000 C   0  0
    8.2417   -1.6667    0.0000 C   0  0
    5.1792   -2.8000    0.0000 N   0  0
    3.8917   -2.8125    0.0000 C   0  0
    8.8292   -2.8000    0.0000 C   0  0
    7.0167   -2.4542    0.0000 C   0  0
    3.2542   -2.4542    0.0000 C   0  0
    7.5875   -3.4917    0.0000 C   0  0
    5.8042   -2.4542    0.0000 C   0  0  2  0  0  0
    8.8167   -1.3167    0.0000 N   0  0
    6.4250   -2.8000    0.0000 C   0  0  2  0  0  0
    8.8292   -3.5042    0.0000 C   0  0  1  0  0  0
    8.2292   -3.8667    0.0000 C   0  0  2  0  0  0
    4.5417   -1.7417    0.0000 O   0  0
    7.6250   -1.3167    0.0000 O   0  0
    2.6250   -2.8125    0.0000 C   0  0
    5.8042   -1.7625    0.0000 C   0  0
    9.4042   -1.6417    0.0000 C   0  0
    6.3917   -1.4000    0.0000 S   0  0
    6.4250   -3.5167    0.0000 O   0  0
    6.3917   -0.7042    0.0000 C   0  0
    1.9917   -2.4542    0.0000 O   0  0
    3.8917   -3.5417    0.0000 C   0  0
    3.2542   -1.7625    0.0000 C   0  0
    3.2542   -3.9250    0.0000 C   0  0
    2.6250   -3.5417    0.0000 C   0  0
    9.4625   -3.8417    0.0000 C   0  0
    8.2292   -4.5750    0.0000 C   0  0
    9.7542   -2.2542    0.0000 C   0  0
   10.0167   -1.3167    0.0000 C   0  0
    9.0500   -2.2542    0.0000 C   0  0
    5.8000   -0.3417    0.0000 C   0  0
    6.9667   -0.3417    0.0000 C   0  0
    9.4625   -4.5750    0.0000 C   0  0
    8.8500   -4.9292    0.0000 C   0  0
    6.9667    0.3208    0.0000 C   0  0
    5.8000    0.3208    0.0000 C   0  0
    6.3917    0.6750    0.0000 C   0  0
    9.4417   -3.1500    0.0000 H   0  0
    7.6167   -4.2167    0.0000 H   0  0
  2  1  1  0
  3  5  1  0
  2  4  1  6
  5 11  1  0
  6  3  1  0
  7  2  1  0
  8  1  1  0
  9  6  1  0
 10  1  1  0
 11 13  1  0
 12  4  1  0
 13  8  1  0
 14 15  1  0
 15 10  1  0
 16  3  2  0
 17  4  2  0
 18  9  2  0
 11 19  1  1
 20 12  1  0
 21 19  1  0
 13 22  1  1
 23 21  1  0
 24 18  1  0
 25  6  2  0
 26  9  1  0
 27 25  1  0
 28 18  1  0
 29 14  1  0
 30 15  1  0
 31 20  1  0
 32 20  1  0
 33 20  1  0
 34 23  2  0
 35 23  1  0
 36 37  1  0
 37 30  1  0
 38 35  2  0
 39 34  1  0
 40 39  2  0
 14 41  1  1
 15 42  1  1
 14  7  1  0
 36 29  1  0
 27 28  2  0
 40 38  1  0
M  END