
  SciTegic06181315362D

 34 36  0  0  0  0            999 V2000
    6.4402   -1.0542    0.0000 C   0  0
    6.4390   -1.8815    0.0000 C   0  0
    7.1538   -2.2944    0.0000 C   0  0
    7.8702   -1.8810    0.0000 C   0  0
    7.8674   -1.0505    0.0000 C   0  0
    7.1520   -0.6414    0.0000 C   0  0
    5.7256   -0.6418    0.0000 O   0  0
    5.0113   -1.0545    0.0000 C   0  0
    5.0115   -1.8795    0.0000 C   0  0
    4.2970   -2.2921    0.0000 O   0  0
    8.5854   -2.2924    0.0000 O   0  0
    9.2992   -1.8788    0.0000 C   0  0
   10.0143   -2.2902    0.0000 C   0  0
   10.7281   -1.8765    0.0000 C   0  0
   10.0156   -3.1152    0.0000 O   0  0
   11.4432   -2.2879    0.0000 N   0  0
   12.1570   -1.8743    0.0000 C   0  0
   12.8721   -2.2856    0.0000 C   0  0
   13.5859   -1.8720    0.0000 N   0  0
   14.3010   -2.2834    0.0000 C   0  0
   15.0149   -1.8698    0.0000 N   0  0
   14.3023   -3.1084    0.0000 O   0  0
   15.7300   -2.2812    0.0000 C   0  0
   15.7275   -3.1053    0.0000 C   0  0
   16.4417   -3.5165    0.0000 C   0  0
   17.1566   -3.1028    0.0000 C   0  0
   17.1527   -2.2736    0.0000 C   0  0
   16.4378   -1.8660    0.0000 C   0  0
    3.5824   -1.8802    0.0000 C   0  0
    3.5933   -1.0545    0.0000 C   0  0
    2.8191   -0.7893    0.0000 C   0  0
    2.3245   -1.4499    0.0000 C   0  0
    2.7955   -2.1234    0.0000 C   0  0
   17.8723   -3.5132    0.0000 F   0  0
  1  2  2  0
  2  3  1  0
  3  4  2  0
  4  5  1  0
  5  6  2  0
  6  1  1  0
  1  7  1  0
  7  8  1  0
  8  9  1  0
  9 10  1  0
  4 11  1  0
 11 12  1  0
 12 13  1  0
 13 14  1  0
 13 15  1  0
 14 16  1  0
 16 17  1  0
 17 18  1  0
 18 19  1  0
 19 20  1  0
 20 21  1  0
 20 22  2  0
 21 23  1  0
 23 24  2  0
 24 25  1  0
 25 26  2  0
 26 27  1  0
 27 28  2  0
 28 23  1  0
 10 29  1  0
 29 30  1  0
 30 31  1  0
 31 32  1  0
 32 33  1  0
 33 29  1  0
 26 34  1  0
M  END