
  SciTegic11201309402D

 94100  0  0  1  0            999 V2000
   14.8132   -5.5844    0.0000 N   0  0
   12.7929   -6.4625    0.0000 N   0  0
    3.7765   -7.1110    0.0000 N   0  0
   13.9867   -5.6188    0.0000 C   0  0
   13.6079   -6.3420    0.0000 C   0  0  1  0  0  0
    3.2944   -6.4453    0.0000 C   0  0
   15.2608   -4.8957    0.0000 C   0  0  2  0  0  0
    1.8825   -5.9460    0.0000 N   0  0
   12.0870   -6.8757    0.0000 C   0  0
    1.6587   -5.1367    0.0000 C   0  0
    4.6030   -7.1110    0.0000 C   0  0  2  0  0  0
   14.9796   -4.1323    0.0000 C   0  0
    2.4679   -6.5314    0.0000 C   0  0  1  0  0  0
    9.9405   -6.4797    0.0000 C   0  0
   11.3696   -6.4739    0.0000 C   0  0  1  0  0  0
    9.2346   -6.8929    0.0000 C   0  0  1  0  0  0
   12.4888   -7.2201    0.0000 C   0  0
   10.6637   -6.8872    0.0000 N   0  0
   15.3125   -6.2329    0.0000 C   0  0
    8.5229   -6.4797    0.0000 N   0  0
   16.0529   -5.1195    0.0000 C   0  0
   -0.3444   -4.2586    0.0000 C   0  0
   14.1187   -6.9790    0.0000 C   0  0
   15.5019   -3.5010    0.0000 N   0  0
    0.4821   -4.3275    0.0000 N   0  0
    5.3203   -6.7035    0.0000 C   0  0
    7.4553   -7.0996    0.0000 C   0  0
   16.0873   -5.9460    0.0000 C   0  0
    0.8322   -5.0678    0.0000 C   0  0  1  0  0  0
    0.1263   -8.6147    0.0000 C   0  0
    2.3646   -1.6070    0.0000 C   0  0
   12.0583   -0.9356    0.0000 C   0  0
   15.7429   -2.0891    0.0000 C   0  0
    3.5182   -7.8916    0.0000 C   0  0
   13.0053   -7.8686    0.0000 C   0  0
    4.8612   -7.8916    0.0000 C   0  0
   13.8145   -7.7481    0.0000 C   0  0
    6.0320   -7.1110    0.0000 N   0  0
   13.5390   -4.9243    0.0000 O   0  0
   15.2206   -2.7204    0.0000 C   0  0  2  0  0  0
    3.6330   -5.6877    0.0000 O   0  0
   11.7082   -0.1780    0.0000 N   0  0
    0.4821   -9.3665    0.0000 N   0  0
    3.1911   -1.6701    0.0000 N   0  0
   11.9033   -7.8227    0.0000 O   0  0
    2.1350   -4.4594    0.0000 O   0  0
    6.7380   -6.6978    0.0000 C   0  0
   14.1589   -3.9946    0.0000 O   0  0
    9.9405   -5.6533    0.0000 O   0  0
    9.2346   -7.7136    0.0000 C   0  0
   -0.8207   -4.9415    0.0000 O   0  0
    4.1897   -8.3851    0.0000 C   0  0  2  0  0  0
    5.3203   -5.8771    0.0000 O   0  0
    7.4553   -7.9260    0.0000 O   0  0
   16.5636   -2.2269    0.0000 O   0  0
   -0.7001   -3.5124    0.0000 C   0  0  2  0  0  0
   12.8848   -1.0044    0.0000 N   0  0
    0.6026   -7.9374    0.0000 N   0  0
    1.8940   -2.2785    0.0000 N   0  0
    2.0145   -0.8495    0.0000 N   0  0
   -0.7001   -8.5459    0.0000 N   0  0
   11.5762   -1.6070    0.0000 N   0  0
    1.1422   -6.3190    0.0000 C   0  0
   15.4617   -1.3143    0.0000 O   0  0
   11.3638   -5.6533    0.0000 C   0  0
   -1.5266   -3.4436    0.0000 N   0  0
    9.9519   -8.1154    0.0000 C   0  0
    2.0891   -7.2659    0.0000 C   0  0
    4.1897   -9.2116    0.0000 O   0  0
    8.5114   -5.6533    0.0000 C   0  0
   15.1747   -7.0421    0.0000 C   0  0
   12.0755   -5.2400    0.0000 O   0  0
    1.2741   -7.1340    0.0000 C   0  0
   16.7244   -6.4625    0.0000 C   0  0
    0.3616   -5.7566    0.0000 C   0  0
   12.7126   -8.6147    0.0000 C   0  0
   14.3139   -8.3851    0.0000 C   0  0
   14.3999   -2.5827    0.0000 C   0  0
   13.2291   -1.7620    0.0000 C   0  0
    0.2468   -7.1856    0.0000 C   0  0
    1.0675   -2.2097    0.0000 C   0  0
   -0.2238   -2.8295    0.0000 C   0  0
    9.9577   -8.9419    0.0000 C   0  0
   10.6637   -7.7022    0.0000 C   0  0
    0.7117   -6.4969    0.0000 C   0  0
   14.0556   -1.8309    0.0000 C   0  0
    0.5912   -2.8984    0.0000 C   0  0
   15.8118   -7.5644    0.0000 C   0  0
   16.5866   -7.2832    0.0000 C   0  0
   14.0211   -9.1427    0.0000 C   0  0
   13.2119   -9.2632    0.0000 C   0  0
   10.6637   -9.3493    0.0000 C   0  0
   11.3696   -8.1154    0.0000 C   0  0
   11.3810   -8.9419    0.0000 C   0  0
  2  5  1  0
  3 11  1  0
  4  1  1  0
  5  4  1  1
  6  3  1  0
  7  1  1  0
  8 13  1  0
  9  2  1  0
 10  8  1  0
 11 26  1  6
  7 12  1  6
 13  6  1  6
 14 18  1  0
 15  9  1  0
 16 14  1  0
 17  2  1  0
 15 18  1  1
 19  1  1  0
 20 16  1  0
  7 21  1  0
 22 25  1  0
 23  5  1  0
 24 12  1  0
 29 25  1  6
 26 38  1  0
 27 20  1  0
 28 19  1  0
 29 10  1  0
 30 58  2  0
 31 59  2  0
 32 57  2  0
 33 40  1  0
 34  3  1  0
 35 37  2  0
 36 11  1  0
 37 23  1  0
 38 47  1  0
 39  4  2  0
 40 24  1  1
 41  6  2  0
 42 32  1  0
 43 30  1  0
 44 31  1  0
 45  9  2  0
 46 10  2  0
 47 27  1  0
 48 12  2  0
 49 14  2  0
 16 50  1  6
 51 22  2  0
 52 36  1  0
 53 26  2  0
 54 27  2  0
 55 33  2  0
 56 22  1  0
 57 79  1  0
 58 80  1  0
 59 81  1  0
 60 31  1  0
 61 30  1  0
 62 32  1  0
 63  8  1  0
 64 33  1  0
 15 65  1  0
 56 66  1  6
 67 50  1  0
 68 13  1  0
 52 69  1  6
 70 20  1  0
 71 19  1  0
 72 65  1  0
 73 68  1  0
 74 28  1  0
 29 75  1  0
 76 35  1  0
 77 37  1  0
 40 78  1  0
 79 86  1  0
 80 85  1  0
 81 87  1  0
 56 82  1  0
 83 67  2  0
 84 67  1  0
 85 75  1  0
 86 78  1  0
 87 82  1  0
 88 71  1  0
 89 88  1  0
 90 77  2  0
 91 90  1  0
 92 83  1  0
 93 84  2  0
 94 93  1  0
 21 28  1  0
 74 89  1  0
 35 17  1  0
 91 76  2  0
 92 94  2  0
 52 34  1  0
 73 63  1  0
M  END