
  SciTegic06181315362D

 35 37  0  0  0  0            999 V2000
   23.6608  -20.9373    0.0000 C   0  0
   23.6597  -21.7646    0.0000 C   0  0
   24.3745  -22.1775    0.0000 C   0  0
   25.0909  -21.7641    0.0000 C   0  0
   25.0880  -20.9336    0.0000 C   0  0
   24.3726  -20.5245    0.0000 C   0  0
   22.9463  -20.5250    0.0000 O   0  0
   22.2319  -20.9376    0.0000 C   0  0
   22.2321  -21.7626    0.0000 C   0  0
   21.5177  -22.1753    0.0000 O   0  0
   25.8060  -22.1755    0.0000 O   0  0
   26.5198  -21.7619    0.0000 C   0  0
   27.2349  -22.1732    0.0000 C   0  0
   27.9487  -21.7596    0.0000 C   0  0
   27.2362  -22.9982    0.0000 O   0  0
   28.6639  -22.1710    0.0000 N   0  0
   29.3777  -21.7574    0.0000 C   0  0
   30.0928  -22.1688    0.0000 C   0  0
   30.8066  -21.7552    0.0000 N   0  0
   31.5217  -22.1666    0.0000 C   0  0
   32.2356  -21.7529    0.0000 N   0  0
   31.5230  -22.9915    0.0000 O   0  0
   32.9506  -22.1643    0.0000 C   0  0
   32.9482  -22.9883    0.0000 C   0  0
   33.6625  -23.3996    0.0000 C   0  0
   34.3772  -22.9859    0.0000 C   0  0
   34.3733  -22.1567    0.0000 C   0  0
   33.6584  -21.7491    0.0000 C   0  0
   20.8031  -21.7633    0.0000 C   0  0
   20.8140  -20.9376    0.0000 C   0  0
   20.0397  -20.6725    0.0000 C   0  0
   19.5451  -21.3330    0.0000 C   0  0
   20.0162  -22.0066    0.0000 C   0  0
   33.6534  -20.9241    0.0000 O   0  0
   34.3653  -20.5073    0.0000 C   0  0
  1  2  2  0
  2  3  1  0
  3  4  2  0
  4  5  1  0
  5  6  2  0
  6  1  1  0
  1  7  1  0
  7  8  1  0
  8  9  1  0
  9 10  1  0
  4 11  1  0
 11 12  1  0
 12 13  1  0
 13 14  1  0
 13 15  1  0
 14 16  1  0
 16 17  1  0
 17 18  1  0
 18 19  1  0
 19 20  1  0
 20 21  1  0
 20 22  2  0
 21 23  1  0
 23 24  2  0
 24 25  1  0
 25 26  2  0
 26 27  1  0
 27 28  2  0
 28 23  1  0
 10 29  1  0
 29 30  1  0
 30 31  1  0
 31 32  1  0
 32 33  1  0
 33 29  1  0
 28 34  1  0
 34 35  1  0
M  END