
  SciTegic01111613442D

 19 19  0  0  0  0            999 V2000
   -2.5951    3.0039    0.0000 C   0  0
   -3.6331    3.6060    0.0000 O   0  0
    5.1894   -6.0109    0.0000 N   0  0
   -2.5973    1.5031    0.0000 C   0  0
    2.5973   -1.5031    0.0000 O   0  0
   -1.5549    3.6021    0.0000 N   0  0
    3.8933   -3.7570    0.0000 C   0  0
    1.2990   -0.7500    0.0000 C   0  0
    3.8912   -5.2578    0.0000 C   0  0
   -1.2990    0.7500    0.0000 C   0  0
    2.5951   -3.0039    0.0000 C   0  0
    0.0000   -1.5000    0.0000 C   0  0
    1.2990    0.7500    0.0000 C   0  0
   -1.2990   -0.7500    0.0000 C   0  0
    0.0000    1.5000    0.0000 C   0  0
    4.9336   -3.1588    0.0000 O   0  0
    5.1873   -7.5117    0.0000 C   0  0
    6.2253   -8.1139    0.0000 C   0  0
    4.1470   -8.1099    0.0000 C   0  0
  2  1  2  0
  3  9  1  0
  4  1  1  0
  5  8  1  0
  6  1  1  0
  7 11  1  0
  8 13  1  0
  9  7  1  0
 10  4  1  0
 11  5  1  0
 12 14  1  0
 13 15  2  0
 14 10  2  0
 15 10  1  0
 16  7  1  0
 17  3  1  0
 18 17  1  0
 19 17  1  0
 12  8  2  0
M  END