
  SciTegic06181315362D

 37 39  0  0  0  0            999 V2000
   24.5913  -16.0006    0.0000 C   0  0
   24.5901  -16.8281    0.0000 C   0  0
   25.3050  -17.2409    0.0000 C   0  0
   26.0214  -16.8276    0.0000 C   0  0
   26.0186  -15.9970    0.0000 C   0  0
   25.3032  -15.5879    0.0000 C   0  0
   23.8767  -15.5883    0.0000 O   0  0
   23.1623  -16.0010    0.0000 C   0  0
   23.1625  -16.8260    0.0000 C   0  0
   22.4481  -17.2387    0.0000 O   0  0
   26.7366  -17.2390    0.0000 O   0  0
   27.4505  -16.8254    0.0000 C   0  0
   28.1656  -17.2367    0.0000 C   0  0
   28.8795  -16.8230    0.0000 C   0  0
   28.1669  -18.0617    0.0000 O   0  0
   29.5946  -17.2344    0.0000 N   0  0
   30.3084  -16.8208    0.0000 C   0  0
   31.0235  -17.2322    0.0000 C   0  0
   31.7374  -16.8186    0.0000 N   0  0
   32.4526  -17.2300    0.0000 C   0  0
   33.1664  -16.8164    0.0000 N   0  0
   32.4538  -18.0550    0.0000 O   0  0
   33.8816  -17.2278    0.0000 C   0  0
   33.8791  -18.0518    0.0000 C   0  0
   34.5934  -18.4631    0.0000 C   0  0
   35.3083  -18.0495    0.0000 C   0  0
   35.3043  -17.2202    0.0000 C   0  0
   34.5894  -16.8126    0.0000 C   0  0
   21.7333  -16.8268    0.0000 C   0  0
   21.7443  -16.0010    0.0000 C   0  0
   20.9700  -15.7358    0.0000 C   0  0
   20.4754  -16.3964    0.0000 C   0  0
   20.9464  -17.0700    0.0000 C   0  0
   36.0240  -18.4599    0.0000 C   0  0
   36.0263  -19.2849    0.0000 F   0  0
   36.7373  -18.0454    0.0000 F   0  0
   36.8182  -18.6716    0.0000 F   0  0
  1  2  2  0
  2  3  1  0
  3  4  2  0
  4  5  1  0
  5  6  2  0
  6  1  1  0
  1  7  1  0
  7  8  1  0
  8  9  1  0
  9 10  1  0
  4 11  1  0
 11 12  1  0
 12 13  1  0
 13 14  1  0
 13 15  1  0
 14 16  1  0
 16 17  1  0
 17 18  1  0
 18 19  1  0
 19 20  1  0
 20 21  1  0
 20 22  2  0
 21 23  1  0
 23 24  2  0
 24 25  1  0
 25 26  2  0
 26 27  1  0
 27 28  2  0
 28 23  1  0
 10 29  1  0
 29 30  1  0
 30 31  1  0
 31 32  1  0
 32 33  1  0
 33 29  1  0
 26 34  1  0
 34 35  1  0
 34 36  1  0
 34 37  1  0
M  END