
  SciTegic12091219252D

 33 37  0  0  0  0            999 V2000
    0.0167  -14.8292    0.0000 C   0  0
    0.0167  -15.5500    0.0000 N   0  0
   -1.2208  -15.5500    0.0000 C   0  0
   -0.6083  -15.9125    0.0000 C   0  0
   -0.6083  -14.4667    0.0000 N   0  0
    3.0792  -13.7542    0.0000 C   0  0
   -1.2208  -14.8292    0.0000 C   0  0
    2.4792  -13.4042    0.0000 C   0  0
    3.7042  -13.4167    0.0000 O   0  0
    0.6417  -14.4667    0.0000 N   0  0
    1.8667  -13.7542    0.0000 N   0  0
   -1.8333  -15.9125    0.0000 C   0  0
   -1.8333  -14.4667    0.0000 C   0  0
    3.6792  -14.8167    0.0000 O   0  0
    4.3042  -13.7667    0.0000 C   0  0
   -2.4583  -15.5500    0.0000 C   0  0
   -2.4583  -14.8292    0.0000 C   0  0
    3.0667  -14.4667    0.0000 C   0  0
    4.2917  -14.4667    0.0000 C   0  0
    0.6417  -13.7667    0.0000 C   0  0
    1.2542  -14.8167    0.0000 C   0  0
    1.2417  -13.4167    0.0000 C   0  0
    1.8667  -14.4667    0.0000 C   0  0
    2.4792  -12.7042    0.0000 O   0  0
   -0.6083  -16.6125    0.0000 N   0  0
   -3.0833  -15.9125    0.0000 O   0  0
   -3.0833  -14.4667    0.0000 O   0  0
    4.9417  -13.4250    0.0000 C   0  0
    4.9167  -14.8292    0.0000 C   0  0
   -3.6875  -14.8125    0.0000 C   0  0
   -3.6833  -15.5500    0.0000 C   0  0
    5.5542  -13.7875    0.0000 C   0  0
    5.5417  -14.4875    0.0000 C   0  0
  2  1  1  0
  3  7  2  0
  4  2  2  0
  5  1  2  0
  6  8  1  0
  7  5  1  0
  8 11  1  0
  9  6  1  0
 10  1  1  0
 11 22  1  0
 12  3  1  0
 13  7  1  0
 14 18  1  0
 15  9  1  0
 16 12  2  0
 17 13  2  0
 18  6  1  0
 19 14  1  0
 20 10  1  0
 21 10  1  0
 22 20  1  0
 23 21  1  0
 24  8  2  0
 25  4  1  0
 26 16  1  0
 27 17  1  0
 28 15  1  0
 29 19  1  0
 30 27  1  0
 31 26  1  0
 32 28  2  0
 33 29  2  0
  4  3  1  0
 23 11  1  0
 17 16  1  0
 15 19  2  0
 32 33  1  0
M  END