
  SciTegic01091215432D

 64 70  0  0  0  0            999 V2000
   10.9508  -23.9498    0.0000 C   0  0
   11.6679  -24.3576    0.0000 C   0  0
   12.3797  -23.9403    0.0000 C   0  0
   13.0620  -24.4041    0.0000 C   0  0
   13.0924  -25.2266    0.0000 C   0  0
   13.8846  -25.4568    0.0000 C   0  0
   13.8426  -24.1226    0.0000 N   0  0
   14.3447  -24.7755    0.0000 C   0  0
   15.1566  -24.6677    0.0000 C   0  0
   14.1525  -23.3620    0.0000 B   0  5
   14.1451  -22.5356    0.0000 F   0  0
   14.9708  -23.2551    0.0000 N   0  3
   15.4722  -23.9046    0.0000 C   0  0
   16.2449  -23.6284    0.0000 C   0  0
   16.2210  -22.8081    0.0000 C   0  0
   15.4336  -22.5775    0.0000 C   0  0
   15.1558  -21.8007    0.0000 C   0  0
   15.6172  -21.1200    0.0000 C   0  0
   15.1130  -20.4670    0.0000 C   0  0
   14.3361  -20.7447    0.0000 C   0  0
   14.3603  -21.5693    0.0000 S   0  0
   13.4326  -22.9481    0.0000 F   0  0
   -4.7625  -20.6917    0.0000 C   0  0
   -4.7625  -21.5167    0.0000 C   0  0
   -4.0505  -21.9250    0.0000 C   0  0
   -4.0505  -20.2750    0.0000 C   0  0
   -3.3385  -20.6917    0.0000 C   0  0
   -3.3374  -21.5167    0.0000 C   0  0
   -2.6264  -21.9260    0.0000 C   0  0
   -1.9118  -21.5148    0.0000 C   0  0
   -1.9129  -20.6898    0.0000 C   0  0
   -2.6285  -20.2760    0.0000 C   0  0
   -2.6307  -19.4510    0.0000 O   0  0
   -1.9173  -19.0366    0.0000 C   0  0
   -1.2017  -19.4472    0.0000 C   0  0
   -0.4884  -19.0328    0.0000 C   0  0
   -1.1995  -20.2722    0.0000 O   0  0
    0.2272  -19.4434    0.0000 N   0  0
    0.9406  -19.0290    0.0000 C   0  0
    1.6561  -19.4396    0.0000 C   0  0
    1.6583  -20.2646    0.0000 O   0  0
    2.3739  -20.6751    0.0000 C   0  0
    3.0873  -20.2607    0.0000 C   0  0
    3.0851  -19.4357    0.0000 O   0  0
    3.7984  -19.0213    0.0000 C   0  0
    4.5140  -19.4319    0.0000 C   0  0
    4.5162  -20.2569    0.0000 N   0  0
    5.2318  -20.6675    0.0000 C   0  0
    5.9452  -20.2531    0.0000 C   0  0
    5.2340  -21.4925    0.0000 O   0  0
    5.9430  -19.4281    0.0000 C   0  0
    6.6563  -19.0137    0.0000 C   0  0
    7.3719  -19.4243    0.0000 C   0  0
    7.3741  -20.2493    0.0000 C   0  0
    8.0897  -20.6599    0.0000 N   0  0
    8.0919  -21.4849    0.0000 C   0  0
    8.8074  -21.8955    0.0000 C   0  0
    7.3785  -21.8993    0.0000 O   0  0
    8.8096  -22.7205    0.0000 O   0  0
    9.5252  -23.1311    0.0000 C   0  0
    9.5244  -23.9553    0.0000 C   0  0
   10.2391  -24.3658    0.0000 C   0  0
   10.9486  -23.1220    0.0000 C   0  0
   10.2333  -22.7153    0.0000 C   0  0
 27 32  1  0
 28 29  1  0
 29 30  2  0
 30 31  1  0
 31 32  2  0
 14 15  2  0
 32 33  1  0
 15 16  1  0
 33 34  1  0
 16 12  2  0
 34 35  1  0
  3  4  1  0
 35 36  1  0
 16 17  1  0
 35 37  1  0
 17 18  2  0
 36 38  1  0
  4  5  2  0
 38 39  1  0
 39 40  1  0
  7 10  1  0
 40 41  1  0
  8  9  1  0
 41 42  1  0
 18 19  1  0
 42 43  1  0
 19 20  2  0
 43 44  1  0
 20 21  1  0
 44 45  1  0
 21 17  1  0
 45 46  1  0
  9 13  2  0
 46 47  1  0
 10 22  1  0
 47 48  1  0
 23 24  1  0
 48 49  1  0
 12 10  1  0
 48 50  2  0
  2  3  2  0
 49 51  1  0
 10 11  1  0
 51 52  1  0
 12 13  1  0
 52 53  1  0
 23 26  2  0
 53 54  1  0
 24 25  2  0
 54 55  1  0
 25 28  1  0
 55 56  1  0
 27 26  1  0
 56 57  1  0
 27 28  2  0
 56 58  2  0
  5  6  1  0
 57 59  1  0
  6  8  2  0
 59 60  1  0
  7  4  1  0
 60 61  2  0
  7  8  1  0
 61 62  1  0
 62  1  2  0
  1  2  1  0
  1 63  1  0
 13 14  1  0
 63 64  2  0
 64 60  1  0
M  CHG  2  10  -1  12   1
M  END