
  SciTegic06181315362D

 34 36  0  0  0  0            999 V2000
    6.3068   -7.7291    0.0000 C   0  0
    6.3057   -8.5564    0.0000 C   0  0
    7.0205   -8.9693    0.0000 C   0  0
    7.7369   -8.5559    0.0000 C   0  0
    7.7340   -7.7254    0.0000 C   0  0
    7.0187   -7.3163    0.0000 C   0  0
    5.5923   -7.3167    0.0000 O   0  0
    4.8779   -7.7294    0.0000 C   0  0
    4.8781   -8.5544    0.0000 C   0  0
    4.1638   -8.9671    0.0000 O   0  0
    8.4520   -8.9673    0.0000 O   0  0
    9.1659   -8.5537    0.0000 C   0  0
    9.8809   -8.9651    0.0000 C   0  0
   10.5948   -8.5514    0.0000 C   0  0
    9.8822   -9.7901    0.0000 O   0  0
   11.3098   -8.9628    0.0000 N   0  0
   12.0237   -8.5492    0.0000 C   0  0
   12.7388   -8.9606    0.0000 C   0  0
   13.4526   -8.5470    0.0000 N   0  0
   14.1677   -8.9583    0.0000 C   0  0
   14.8815   -8.5447    0.0000 N   0  0
   14.1691   -9.7833    0.0000 O   0  0
   15.5967   -8.9561    0.0000 C   0  0
   15.5941   -9.7802    0.0000 C   0  0
   16.3085  -10.1915    0.0000 C   0  0
   17.0232   -9.7777    0.0000 C   0  0
   17.0193   -8.9485    0.0000 C   0  0
   16.3045   -8.5410    0.0000 C   0  0
    3.4491   -8.5551    0.0000 C   0  0
    3.4600   -7.7294    0.0000 C   0  0
    2.6857   -7.4643    0.0000 C   0  0
    2.1911   -8.1248    0.0000 C   0  0
    2.6622   -8.7984    0.0000 C   0  0
   16.2994   -7.7160    0.0000 Br  0  0
  1  2  2  0
  2  3  1  0
  3  4  2  0
  4  5  1  0
  5  6  2  0
  6  1  1  0
  1  7  1  0
  7  8  1  0
  8  9  1  0
  9 10  1  0
  4 11  1  0
 11 12  1  0
 12 13  1  0
 13 14  1  0
 13 15  1  0
 14 16  1  0
 16 17  1  0
 17 18  1  0
 18 19  1  0
 19 20  1  0
 20 21  1  0
 20 22  2  0
 21 23  1  0
 23 24  2  0
 24 25  1  0
 25 26  2  0
 26 27  1  0
 27 28  2  0
 28 23  1  0
 10 29  1  0
 29 30  1  0
 30 31  1  0
 31 32  1  0
 32 33  1  0
 33 29  1  0
 28 34  1  0
M  END