
  SciTegic12091219282D

 37 41  0  0  0  0            999 V2000
    6.9208   -3.0042    0.0000 C   0  0
    7.5250   -2.6417    0.0000 N   0  0
    3.2167   -3.0417    0.0000 C   0  0
    5.6875   -3.0167    0.0000 C   0  0
    6.3000   -2.6542    0.0000 N   0  0
    3.8292   -2.6792    0.0000 N   0  0
    8.1417   -2.9833    0.0000 C   0  0
    0.1292   -2.0000    0.0000 N   0  0
    5.0667   -2.6667    0.0000 C   0  0
   -1.1083   -2.6917    0.0000 N   0  0
    6.9250   -3.7167    0.0000 N   0  0
    2.6000   -2.6917    0.0000 C   0  0
    4.4542   -3.0292    0.0000 C   0  0
    8.7542   -2.6125    0.0000 C   0  0
    5.6917   -3.7292    0.0000 C   0  0
    3.2250   -3.7500    0.0000 O   0  0
    9.3458   -1.5375    0.0000 N   0  0
    0.7417   -1.6417    0.0000 C   0  0
    2.6000   -1.9792    0.0000 C   0  0
    1.9875   -3.0500    0.0000 C   0  0
    5.0667   -4.0917    0.0000 C   0  0
    0.1167   -2.7167    0.0000 C   0  0
   -0.4708   -1.6417    0.0000 C   0  0
   -0.5000   -3.0542    0.0000 C   0  0
   -1.1000   -1.9792    0.0000 C   0  0
    8.1583   -3.6958    0.0000 C   0  0
    7.5458   -4.0625    0.0000 C   0  0
    1.3667   -1.9917    0.0000 C   0  0
    4.4542   -3.7417    0.0000 C   0  0
    1.9667   -1.6292    0.0000 C   0  0
    1.3750   -2.7042    0.0000 C   0  0
    8.7417   -1.9083    0.0000 C   0  0
   -1.7375   -3.0292    0.0000 C   0  0
    9.3750   -2.9625    0.0000 C   0  0
    9.9750   -1.8833    0.0000 C   0  0
    6.3042   -4.0875    0.0000 C   0  0
    9.9917   -2.5958    0.0000 C   0  0
  2  1  1  0
  3  6  1  0
  4  5  1  0
  5  1  1  0
  6 13  1  0
  7  2  2  0
  8 18  1  0
  9  4  1  0
 10 25  1  0
 11  1  2  0
 12  3  1  0
 13  9  2  0
 14  7  1  0
 15  4  2  0
 16  3  2  0
 17 32  2  0
 18 28  1  0
 19 12  2  0
 20 12  1  0
 21 15  1  0
 22  8  1  0
 23  8  1  0
 24 22  1  0
 25 23  1  0
 26  7  1  0
 27 11  1  0
 28 31  1  0
 29 21  2  0
 30 19  1  0
 31 20  2  0
 32 14  1  0
 33 10  1  0
 34 14  2  0
 35 37  2  0
 36 15  1  0
 37 34  1  0
 27 26  2  0
 29 13  1  0
 17 35  1  0
 28 30  2  0
 24 10  1  0
M  END