
  SciTegic07101214422D

 76 84  0  0  0  0            999 V2000
   17.1344  -20.0716    0.0000 B   0  5
   16.4098  -19.6771    0.0000 F   0  0
   16.4304  -20.5018    0.0000 F   0  0
   18.0099  -22.0319    0.0000 C   0  0
   18.6638  -21.5289    0.0000 C   0  0
   17.3294  -21.5615    0.0000 C   0  0
   17.5650  -20.7709    0.0000 N   0  3
   18.3882  -20.7515    0.0000 C   0  0
   18.7808  -20.0328    0.0000 C   0  0
   17.5314  -19.3483    0.0000 N   0  0
   18.3518  -19.3259    0.0000 C   0  0
   18.5840  -18.5387    0.0000 C   0  0
   17.9071  -18.0746    0.0000 C   0  0
   17.2567  -18.5750    0.0000 C   0  0
   16.4654  -18.3417    0.0000 C   0  0
   16.1885  -17.5658    0.0000 S   0  0
   15.3638  -17.5884    0.0000 C   0  0
   15.1304  -18.3797    0.0000 C   0  0
   15.8109  -18.8461    0.0000 C   0  0
   -4.0764  -25.7833    0.0000 C   0  0
   -4.0776  -26.6107    0.0000 C   0  0
   -3.3628  -27.0235    0.0000 C   0  0
   -2.6463  -26.6102    0.0000 C   0  0
   -3.3646  -25.3705    0.0000 C   0  0
   -2.6529  -25.7814    0.0000 C   0  0
   -2.6606  -24.1400    0.0000 C   0  0
   -3.3673  -24.5532    0.0000 N   0  0
   -1.9442  -24.5490    0.0000 C   0  0
   -1.9390  -25.3723    0.0000 N   0  0
   -1.1544  -25.6218    0.0000 C   0  0
   -0.6746  -24.9527    0.0000 N   0  0
   -1.1628  -24.2898    0.0000 N   0  0
   -0.8945  -26.4049    0.0000 O   0  0
   -2.6649  -23.3150    0.0000 N   0  0
   -1.9525  -22.8989    0.0000 C   0  0
   -1.9568  -22.0739    0.0000 O   0  0
   -1.2359  -23.3077    0.0000 C   0  0
    0.1480  -24.9469    0.0000 C   0  0
    0.5644  -25.6604    0.0000 C   0  0
    1.3886  -25.6555    0.0000 C   0  0
    1.7974  -24.9379    0.0000 C   0  0
    1.3759  -24.2237    0.0000 C   0  0
    0.5531  -24.2321    0.0000 C   0  0
    2.6224  -24.9316    0.0000 O   0  0
    3.0404  -25.6429    0.0000 C   0  0
   -0.5236  -22.8915    0.0000 C   0  0
    0.1930  -23.3003    0.0000 C   0  0
    0.9053  -22.8841    0.0000 N   0  0
    0.1972  -24.1253    0.0000 O   0  0
    1.6219  -23.2929    0.0000 C   0  0
    2.3342  -22.8767    0.0000 C   0  0
    3.0508  -23.2855    0.0000 O   0  0
    3.7632  -22.8694    0.0000 C   0  0
    4.4798  -23.2782    0.0000 C   0  0
    5.1921  -22.8620    0.0000 O   0  0
    5.9087  -23.2708    0.0000 C   0  0
    6.6210  -22.8546    0.0000 C   0  0
    7.3376  -23.2634    0.0000 N   0  0
    8.0499  -22.8472    0.0000 C   0  0
    8.0457  -22.0222    0.0000 O   0  0
    8.7665  -23.2560    0.0000 C   0  0
    9.4789  -22.8399    0.0000 C   0  0
   10.1954  -23.2487    0.0000 C   0  0
   10.9078  -22.8325    0.0000 C   0  0
   11.6244  -23.2413    0.0000 C   0  0
   12.3367  -22.8251    0.0000 N   0  0
   13.0533  -23.2339    0.0000 C   0  0
   13.7656  -22.8177    0.0000 C   0  0
   14.4822  -23.2265    0.0000 O   0  0
   13.0576  -24.0589    0.0000 O   0  0
   15.1945  -22.8103    0.0000 C   0  0
   15.9096  -23.2200    0.0000 C   0  0
   16.6214  -22.8045    0.0000 C   0  0
   16.6176  -21.9786    0.0000 C   0  0
   15.8960  -21.5700    0.0000 C   0  0
   15.1871  -21.9879    0.0000 C   0  0
  2  1  1  0
 35 36  2  0
  7  1  1  0
 35 37  1  0
  8  9  2  0
 16 17  1  0
 38 39  2  0
 17 18  2  0
 39 40  1  0
 18 19  1  0
 40 41  2  0
 19 15  2  0
 41 42  1  0
  9 11  1  0
 42 43  2  0
 43 38  1  0
 31 38  1  0
 10  1  1  0
 41 44  1  0
 20 21  2  0
 44 45  1  0
 10 11  1  0
 37 46  1  0
 21 22  1  0
 46 47  1  0
  1  3  1  0
 47 48  1  0
 22 23  2  0
 47 49  2  0
 23 25  1  0
 48 50  1  0
 24 20  1  0
 50 51  1  0
  5  8  1  0
 51 52  1  0
  7  6  2  0
 52 53  1  0
 24 25  2  0
 53 54  1  0
 25 29  1  0
 54 55  1  0
  6  4  1  0
 55 56  1  0
 28 26  1  0
 56 57  1  0
  7  8  1  0
 57 58  1  0
 26 27  2  0
 58 59  1  0
 27 24  1  0
 59 60  2  0
 28 29  1  0
 59 61  1  0
 11 12  2  0
 61 62  1  0
 12 13  1  0
 62 63  1  0
 13 14  2  0
 63 64  1  0
 14 10  1  0
 64 65  1  0
 65 66  1  0
 29 30  1  0
 66 67  1  0
 30 31  1  0
 67 68  1  0
 31 32  1  0
 68 69  1  0
 32 28  2  0
 67 70  2  0
 14 15  1  0
 69 71  1  0
 30 33  2  0
 71 72  2  0
 15 16  1  0
 72 73  1  0
 26 34  1  0
 73 74  2  0
  4  5  2  0
 74 75  1  0
 34 35  1  0
 75 76  2  0
 76 71  1  0
 74  6  1  0
M  CHG  2   1  -1   7   1
M  END