
  SciTegic12231509382D

 37 41  0  0  0  0            999 V2000
    2.6542   -1.2042    0.0000 C   0  0  2  0  0  0
    3.3250   -0.9917    0.0000 C   0  0  2  0  0  0
    1.4417   -1.9125    0.0000 C   0  0  2  0  0  0
    0.8125   -2.2292    0.0000 C   0  0  2  0  0  0
    2.6542   -1.8917    0.0000 C   0  0  2  0  0  0
    2.0417   -2.2667    0.0000 C   0  0  2  0  0  0
    0.8125   -2.9667    0.0000 C   0  0
    3.9417   -0.6292    0.0000 O   0  0
    1.4417   -1.1917    0.0000 C   0  0  2  0  0  0
    2.0417   -0.8417    0.0000 C   0  0
    3.7042   -1.5625    0.0000 C   0  0  1  0  0  0
    4.6542   -0.6292    0.0000 C   0  0
    0.1792   -1.8750    0.0000 C   0  0
    3.3250   -2.1000    0.0000 C   0  0
    5.0125   -0.0125    0.0000 C   0  0
    0.1792   -3.3042    0.0000 C   0  0
    3.3250   -0.2792    0.0000 C   0  0
    2.0417   -2.9667    0.0000 C   0  0
   -0.4375   -2.2250    0.0000 C   0  0
   -0.4333   -2.9292    0.0000 C   0  0
    5.6917    0.2042    0.0000 O   0  0
    1.4292   -3.3292    0.0000 C   0  0
    5.0125   -1.2500    0.0000 O   0  0
    4.5958    0.5708    0.0000 C   0  0
    1.4417   -2.6292    0.0000 Cl  0  0
    5.6958    0.9125    0.0000 C   0  0
    2.7042    0.0750    0.0000 O   0  0
    5.0208    1.1417    0.0000 C   0  0
   -1.0625   -3.2917    0.0000 O   0  0
    2.6542   -0.4917    0.0000 C   0  0
    0.8250   -0.8542    0.0000 O   0  0
    0.8125   -1.5167    0.0000 C   0  0
    3.9375    0.0833    0.0000 C   0  0
    3.9292    0.7958    0.0000 Cl  0  0
    4.4167   -1.5667    0.0000 C   0  0
    2.6417   -2.6042    0.0000 H   0  0
    2.0417   -1.5542    0.0000 H   0  0
  2  1  1  0
  3  9  1  0
  4  3  1  0
  5  1  1  0
  6  5  1  0
  7  4  1  0
  2  8  1  6
  9 10  1  0
 10  1  1  0
 11  2  1  0
 12  8  1  0
 13  4  1  0
 14  5  1  0
 15 12  1  0
 16  7  2  0
 17  2  1  0
 18  6  1  0
 19 13  2  0
 20 19  1  0
 21 15  1  0
 22 18  1  0
 23 12  2  0
 24 15  2  0
  3 25  1  6
 26 21  1  0
 27 17  2  0
 28 24  1  0
 29 20  2  0
  1 30  1  1
  9 31  1  1
  4 32  1  1
 33 17  1  0
 34 33  1  0
 11 35  1  6
  5 36  1  6
  6 37  1  1
 14 11  1  0
  3  6  1  0
  7 22  1  0
 28 26  2  0
 20 16  1  0
M  END