
  SciTegic06181315362D

 34 36  0  0  0  0            999 V2000
    5.9693  -11.6123    0.0000 C   0  0
    5.9682  -12.4397    0.0000 C   0  0
    6.6830  -12.8525    0.0000 C   0  0
    7.3995  -12.4392    0.0000 C   0  0
    7.3965  -11.6087    0.0000 C   0  0
    6.6812  -11.1996    0.0000 C   0  0
    5.2548  -11.2000    0.0000 O   0  0
    4.5404  -11.6127    0.0000 C   0  0
    4.5406  -12.4377    0.0000 C   0  0
    3.8263  -12.8503    0.0000 O   0  0
    8.1145  -12.8506    0.0000 O   0  0
    8.8284  -12.4370    0.0000 C   0  0
    9.5434  -12.8484    0.0000 C   0  0
   10.2573  -12.4348    0.0000 C   0  0
    9.5447  -13.6734    0.0000 O   0  0
   10.9723  -12.8462    0.0000 N   0  0
   11.6862  -12.4324    0.0000 C   0  0
   12.4013  -12.8438    0.0000 C   0  0
   13.1151  -12.4302    0.0000 N   0  0
   13.8303  -12.8416    0.0000 C   0  0
   14.5440  -12.4280    0.0000 N   0  0
   13.8316  -13.6666    0.0000 O   0  0
   15.2592  -12.8394    0.0000 C   0  0
   15.2566  -13.6635    0.0000 C   0  0
   15.9710  -14.0748    0.0000 C   0  0
   16.6858  -13.6611    0.0000 C   0  0
   16.6818  -12.8318    0.0000 C   0  0
   15.9670  -12.4243    0.0000 C   0  0
    3.1116  -12.4384    0.0000 C   0  0
    3.1225  -11.6127    0.0000 C   0  0
    2.3482  -11.3475    0.0000 C   0  0
    1.8536  -12.0081    0.0000 C   0  0
    2.3247  -12.6816    0.0000 C   0  0
   17.4014  -14.0714    0.0000 Br  0  0
  1  2  2  0
  2  3  1  0
  3  4  2  0
  4  5  1  0
  5  6  2  0
  6  1  1  0
  1  7  1  0
  7  8  1  0
  8  9  1  0
  9 10  1  0
  4 11  1  0
 11 12  1  0
 12 13  1  0
 13 14  1  0
 13 15  1  0
 14 16  1  0
 16 17  1  0
 17 18  1  0
 18 19  1  0
 19 20  1  0
 20 21  1  0
 20 22  2  0
 21 23  1  0
 23 24  2  0
 24 25  1  0
 25 26  2  0
 26 27  1  0
 27 28  2  0
 28 23  1  0
 10 29  1  0
 29 30  1  0
 30 31  1  0
 31 32  1  0
 32 33  1  0
 33 29  1  0
 26 34  1  0
M  END