
  Mrv0541 04051115152D          

  8  8  0  0  0  0            999 V2000
    0.0893    1.1920    0.0000 C   0  0  0  0  0  0  0  0  0  0  0  0
   -0.6252    1.6045    0.0000 C   0  0  0  0  0  0  0  0  0  0  0  0
    0.0893    0.3670    0.0000 C   0  0  0  0  0  0  0  0  0  0  0  0
    0.8038   -0.0455    0.0000 C   0  0  0  0  0  0  0  0  0  0  0  0
   -0.6252   -0.0455    0.0000 C   0  0  0  0  0  0  0  0  0  0  0  0
    0.8038   -0.8705    0.0000 C   0  0  0  0  0  0  0  0  0  0  0  0
   -0.6252   -0.8705    0.0000 C   0  0  0  0  0  0  0  0  0  0  0  0
    0.0893   -1.2830    0.0000 C   0  0  0  0  0  0  0  0  0  0  0  0
  1  2  1  0  0  0  0
  1  3  1  0  0  0  0
  4  3  2  0  0  0  0
  5  3  1  0  0  0  0
  4  6  1  0  0  0  0
  5  7  2  0  0  0  0
  6  8  2  0  0  0  0
  7  8  1  0  0  0  0
M  END