
  Mrv0541 05211314572D          

 37 38  0  0  0  0            999 V2000
   -4.8400   -2.1823    0.0000 C   0  0  0  0  0  0  0  0  0  0  0  0
   -4.8400   -1.3573    0.0000 O   0  0  0  0  0  0  0  0  0  0  0  0
   -4.1255   -0.9448    0.0000 C   0  0  0  0  0  0  0  0  0  0  0  0
   -4.1255   -0.1198    0.0000 C   0  0  0  0  0  0  0  0  0  0  0  0
   -3.4110    0.2927    0.0000 C   0  0  0  0  0  0  0  0  0  0  0  0
   -2.6966   -0.1198    0.0000 C   0  0  0  0  0  0  0  0  0  0  0  0
   -1.9821    0.2927    0.0000 C   0  0  0  0  0  0  0  0  0  0  0  0
   -1.2676   -0.1198    0.0000 C   0  0  0  0  0  0  0  0  0  0  0  0
   -0.5531    0.2927    0.0000 N   0  0  0  0  0  0  0  0  0  0  0  0
   -0.5531    1.1177    0.0000 C   0  0  0  0  0  0  0  0  0  0  0  0
    0.1613   -0.1198    0.0000 C   0  0  0  0  0  0  0  0  0  0  0  0
    0.8758    0.2927    0.0000 C   0  0  0  0  0  0  0  0  0  0  0  0
    0.8758    1.1177    0.0000 O   0  0  0  0  0  0  0  0  0  0  0  0
    1.5903   -0.1198    0.0000 N   0  0  0  0  0  0  0  0  0  0  0  0
    2.3047    0.2927    0.0000 C   0  0  0  0  0  0  0  0  0  0  0  0
    3.0192   -0.1198    0.0000 C   0  0  0  0  0  0  0  0  0  0  0  0
    3.7337    0.2927    0.0000 C   0  0  0  0  0  0  0  0  0  0  0  0
    4.4482   -0.1198    0.0000 C   0  0  0  0  0  0  0  0  0  0  0  0
    4.4482   -0.9448    0.0000 C   0  0  0  0  0  0  0  0  0  0  0  0
    3.7337   -1.3573    0.0000 C   0  0  0  0  0  0  0  0  0  0  0  0
    3.0192   -0.9448    0.0000 C   0  0  0  0  0  0  0  0  0  0  0  0
    2.3047    1.1177    0.0000 C   0  0  0  0  0  0  0  0  0  0  0  0
    1.5903    1.5302    0.0000 C   0  0  0  0  0  0  0  0  0  0  0  0
    1.5903    2.3552    0.0000 C   0  0  0  0  0  0  0  0  0  0  0  0
    2.3047    2.7677    0.0000 C   0  0  0  0  0  0  0  0  0  0  0  0
    3.0192    2.3552    0.0000 C   0  0  0  0  0  0  0  0  0  0  0  0
    3.0192    1.5302    0.0000 C   0  0  0  0  0  0  0  0  0  0  0  0
   -2.6966   -0.9448    0.0000 C   0  0  0  0  0  0  0  0  0  0  0  0
   -3.4110   -1.3573    0.0000 C   0  0  0  0  0  0  0  0  0  0  0  0
   -3.4110   -2.1823    0.0000 O   0  0  0  0  0  0  0  0  0  0  0  0
   -4.1255   -2.5948    0.0000 C   0  0  0  0  0  0  0  0  0  0  0  0
    7.3946    1.0717    0.0000 O   0  0  0  0  0  0  0  0  0  0  0  0
    7.8071    0.3572    0.0000 C   0  0  0  0  0  0  0  0  0  0  0  0
    8.6321    0.3572    0.0000 O   0  0  0  0  0  0  0  0  0  0  0  0
    7.3946   -0.3572    0.0000 C   0  0  0  0  0  0  0  0  0  0  0  0
    7.8071   -1.0717    0.0000 O   0  0  0  0  0  0  0  0  0  0  0  0
    6.5696   -0.3572    0.0000 O   0  0  0  0  0  0  0  0  0  0  0  0
  1  2  1  0  0  0  0
  2  3  1  0  0  0  0
  3  4  2  0  0  0  0
  4  5  1  0  0  0  0
  5  6  2  0  0  0  0
  6  7  1  0  0  0  0
  7  8  1  0  0  0  0
  8  9  1  0  0  0  0
  9 10  1  0  0  0  0
  9 11  1  0  0  0  0
 11 12  1  0  0  0  0
 12 13  2  0  0  0  0
 12 14  1  0  0  0  0
 14 15  1  0  0  0  0
 15 16  1  0  0  0  0
 16 17  1  0  0  0  0
 17 18  1  0  0  0  0
 18 19  1  0  0  0  0
 19 20  1  0  0  0  0
 20 21  1  0  0  0  0
 21 16  1  0  0  0  0
 15 22  1  0  0  0  0
 22 23  2  0  0  0  0
 23 24  1  0  0  0  0
 24 25  2  0  0  0  0
 25 26  1  0  0  0  0
 26 27  2  0  0  0  0
 27 22  1  0  0  0  0
  6 28  1  0  0  0  0
 28 29  2  0  0  0  0
 29  3  1  0  0  0  0
 29 30  1  0  0  0  0
 30 31  1  0  0  0  0
 32 33  1  0  0  0  0
 33 34  2  0  0  0  0
 33 35  1  0  0  0  0
 35 36  2  0  0  0  0
 35 37  1  0  0  0  0
M  END