
  SciTegic12091219252D

 15 15  0  0  0  0            999 V2000
   -0.7708    0.1000    0.0000 C   0  0
   -1.3833   -0.2542    0.0000 C   0  0
   -0.1583   -0.2417    0.0000 C   0  0
   -1.3833   -0.9625    0.0000 C   0  0
   -0.1500   -0.9542    0.0000 C   0  0
    1.6875    0.1125    0.0000 N   0  0
   -0.7708   -1.3167    0.0000 C   0  0
    1.0667   -0.2417    0.0000 C   0  0
    0.4542    0.1083    0.0000 C   0  0
   -2.0000    0.0958    0.0000 O   0  0
   -1.9958   -1.3167    0.0000 O   0  0
    0.4417    0.8208    0.0000 O   0  0
    2.3000   -0.2375    0.0000 C   0  0
    2.9167    0.1208    0.0000 C   0  0
    2.3042   -0.9500    0.0000 C   0  0
  2  1  2  0
  3  1  1  0
  4  2  1  0
  5  3  2  0
  6  8  1  0
  7  5  1  0
  8  9  1  0
  9  3  1  0
 10  2  1  0
 11  4  1  0
 12  9  1  0
 13  6  1  0
 14 13  1  0
 15 13  1  0
  7  4  2  0
M  END