
  SciTegic12091219292D

 21 24  0  0  1  0            999 V2000
    2.8292   -5.5500    0.0000 C   0  0
    3.5250   -5.7542    0.0000 N   0  0
    2.8292   -4.8250    0.0000 C   0  0
    2.2167   -4.4792    0.0000 C   0  0
    2.2167   -5.8917    0.0000 N   0  0
    3.5250   -4.6167    0.0000 N   0  0
    1.6250   -4.8250    0.0000 N   0  0
    3.9125   -5.1875    0.0000 C   0  0
    1.6250   -5.5500    0.0000 C   0  0
    3.5250   -6.7167    0.0000 C   0  0  1  0  0  0
    2.2167   -3.7917    0.0000 N   0  0
    3.3042   -7.3667    0.0000 C   0  0
    2.8250   -3.4417    0.0000 C   0  0
    2.6167   -7.3667    0.0000 C   0  0
    3.5042   -3.4542    0.0000 C   0  0
    3.1750   -2.8542    0.0000 C   0  0
    2.9667   -6.2917    0.0000 C   0  0
    1.0125   -5.8917    0.0000 N   0  0
    2.3917   -6.7125    0.0000 C   0  0  2  0  0  0
    1.1750   -6.7125    0.0000 O   0  0
    1.7875   -6.3625    0.0000 C   0  0
  2  1  1  0
  3  1  2  0
  4  3  1  0
  5  1  1  0
  6  3  1  0
  7  4  2  0
  8  2  1  0
  9  5  2  0
 10  2  1  1
 11  4  1  0
 12 10  1  0
 13 11  1  0
 14 12  2  0
 15 13  1  0
 16 13  1  0
 17 10  1  0
 18  9  1  0
 19 17  1  0
 20 21  1  0
 19 21  1  1
  8  6  2  0
  9  7  1  0
 14 19  1  0
 15 16  1  0
M  END