
  SciTegic06181315362D

 35 37  0  0  0  0            999 V2000
    5.6818  -24.1331    0.0000 C   0  0
    5.6807  -24.9604    0.0000 C   0  0
    6.3955  -25.3733    0.0000 C   0  0
    7.1119  -24.9599    0.0000 C   0  0
    7.1091  -24.1294    0.0000 C   0  0
    6.3936  -23.7203    0.0000 C   0  0
    4.9673  -23.7207    0.0000 O   0  0
    4.2529  -24.1334    0.0000 C   0  0
    4.2531  -24.9584    0.0000 C   0  0
    3.5388  -25.3711    0.0000 O   0  0
    7.8270  -25.3713    0.0000 O   0  0
    8.5408  -24.9577    0.0000 C   0  0
    9.2559  -25.3691    0.0000 C   0  0
    9.9698  -24.9554    0.0000 C   0  0
    9.2572  -26.1941    0.0000 O   0  0
   10.6849  -25.3668    0.0000 N   0  0
   11.3987  -24.9532    0.0000 C   0  0
   12.1138  -25.3646    0.0000 C   0  0
   12.8276  -24.9510    0.0000 N   0  0
   13.5427  -25.3623    0.0000 C   0  0
   14.2566  -24.9487    0.0000 N   0  0
   13.5441  -26.1873    0.0000 O   0  0
   14.9716  -25.3601    0.0000 C   0  0
   14.9692  -26.1842    0.0000 C   0  0
   15.6835  -26.5954    0.0000 C   0  0
   16.3982  -26.1817    0.0000 C   0  0
   16.3943  -25.3525    0.0000 C   0  0
   15.6794  -24.9449    0.0000 C   0  0
    2.8241  -24.9591    0.0000 C   0  0
    2.8350  -24.1334    0.0000 C   0  0
    2.0607  -23.8683    0.0000 C   0  0
    1.5661  -24.5288    0.0000 C   0  0
    2.0373  -25.2024    0.0000 C   0  0
   17.1066  -24.9364    0.0000 O   0  0
   17.1025  -24.1114    0.0000 C   0  0
  1  2  2  0
  2  3  1  0
  3  4  2  0
  4  5  1  0
  5  6  2  0
  6  1  1  0
  1  7  1  0
  7  8  1  0
  8  9  1  0
  9 10  1  0
  4 11  1  0
 11 12  1  0
 12 13  1  0
 13 14  1  0
 13 15  1  0
 14 16  1  0
 16 17  1  0
 17 18  1  0
 18 19  1  0
 19 20  1  0
 20 21  1  0
 20 22  2  0
 21 23  1  0
 23 24  2  0
 24 25  1  0
 25 26  2  0
 26 27  1  0
 27 28  2  0
 28 23  1  0
 10 29  1  0
 29 30  1  0
 30 31  1  0
 31 32  1  0
 32 33  1  0
 33 29  1  0
 27 34  1  0
 34 35  1  0
M  END