
  CDK    9/16/09,9:56

 24 26  0  0  0  0  0  0  0  0999 V2000
    3.0736  -14.5291    0.0000 C   0  0  0  0  0  0  0  0  0  0  0  0
    3.0724  -15.3565    0.0000 C   0  0  0  0  0  0  0  0  0  0  0  0
    3.7872  -15.7694    0.0000 C   0  0  0  0  0  0  0  0  0  0  0  0
    4.5037  -15.3560    0.0000 C   0  0  0  0  0  0  0  0  0  0  0  0
    3.7854  -14.1164    0.0000 C   0  0  0  0  0  0  0  0  0  0  0  0
    4.5003  -14.5246    0.0000 C   0  0  0  0  0  0  0  0  0  0  0  0
    5.1094  -13.9709    0.0000 N   0  0  0  0  0  0  0  0  0  0  0  0
    4.7711  -13.2204    0.0000 C   0  0  0  0  0  0  0  0  0  0  0  0
    3.9528  -13.3104    0.0000 C   0  0  0  0  0  0  0  0  0  0  0  0
    5.1802  -12.5040    0.0000 C   0  0  0  0  0  0  0  0  0  0  0  0
    5.9172  -14.1387    0.0000 N   0  0  0  0  0  0  0  0  0  0  0  0
    6.1758  -14.9221    0.0000 C   0  0  0  0  0  0  0  0  0  0  0  0
    6.9836  -15.0898    0.0000 C   0  0  0  0  0  0  0  0  0  0  0  0
    5.6266  -15.5378    0.0000 O   0  0  0  0  0  0  0  0  0  0  0  0
    7.2389  -15.8730    0.0000 C   0  0  0  0  0  0  0  0  0  0  0  0
    8.0458  -16.0410    0.0000 C   0  0  0  0  0  0  0  0  0  0  0  0
    8.5959  -15.4249    0.0000 C   0  0  0  0  0  0  0  0  0  0  0  0
    8.3335  -14.6383    0.0000 C   0  0  0  0  0  0  0  0  0  0  0  0
    7.5272  -14.4741    0.0000 C   0  0  0  0  0  0  0  0  0  0  0  0
    9.4039  -15.5916    0.0000 Cl  0  0  0  0  0  0  0  0  0  0  0  0
    8.3041  -16.8245    0.0000 S   0  0  0  0  0  0  0  0  0  0  0  0
    8.5125  -17.6167    0.0000 N   0  0  0  0  0  0  0  0  0  0  0  0
    9.0951  -16.5903    0.0000 O   0  0  0  0  0  0  0  0  0  0  0  0
    7.5148  -17.0647    0.0000 O   0  0  0  0  0  0  0  0  0  0  0  0
 11 12  1  0  0  0  0 
  2  3  1  0  0  0  0 
 12 13  1  0  0  0  0 
  1  2  2  0  0  0  0 
 12 14  2  0  0  0  0 
  3  4  2  0  0  0  0 
 13 15  2  0  0  0  0 
  4  6  1  0  0  0  0 
 15 16  1  0  0  0  0 
  6  7  1  0  0  0  0 
 16 17  2  0  0  0  0 
  7  8  1  0  0  0  0 
 17 18  1  0  0  0  0 
  8  9  1  0  0  0  0 
 18 19  2  0  0  0  0 
 19 13  1  0  0  0  0 
  9  5  1  0  0  0  0 
 17 20  1  0  0  0  0 
  5  1  1  0  0  0  0 
 16 21  1  0  0  0  0 
  8 10  1  0  0  0  0 
 21 22  1  0  0  0  0 
  5  6  2  0  0  0  0 
 21 23  2  0  0  0  0 
  7 11  1  0  0  0  0 
 21 24  2  0  0  0  0 
M  END