
  SciTegic12091219312D

 16 16  0  0  0  0            999 V2000
    6.3250   -1.1375    0.0000 C   0  0
    5.7000   -0.7792    0.0000 C   0  0
    6.3250   -1.8542    0.0000 C   0  0
    8.1625   -0.7625    0.0000 N   0  0
    5.7000   -2.2250    0.0000 C   0  0
    5.0875   -1.1375    0.0000 C   0  0
    5.0875   -1.8542    0.0000 C   0  0
    6.9417   -0.7792    0.0000 C   0  0
    8.7750   -1.1042    0.0000 C   0  0
    7.5542   -1.1250    0.0000 C   0  0
    5.7000   -2.9250    0.0000 O   0  0
    4.4750   -0.7875    0.0000 O   0  0
    6.9500   -0.0750    0.0000 O   0  0
    8.4167   -1.7167    0.0000 C   0  0
    9.3792   -0.7417    0.0000 C   0  0
    9.1250   -1.7167    0.0000 C   0  0
  2  1  1  0
  3  1  2  0
  4 10  1  0
  5  3  1  0
  6  2  2  0
  7  6  1  0
  8  1  1  0
  9  4  1  0
 10  8  1  0
 11  5  1  0
 12  6  1  0
 13  8  1  0
 14  9  1  0
 15  9  1  0
 16  9  1  0
  5  7  2  0
M  END