
  SciTegic06181315362D

 34 36  0  0  0  0            999 V2000
   23.2908  -28.6506    0.0000 C   0  0
   23.2896  -29.4780    0.0000 C   0  0
   24.0044  -29.8909    0.0000 C   0  0
   24.7209  -29.4775    0.0000 C   0  0
   24.7180  -28.6470    0.0000 C   0  0
   24.0026  -28.2378    0.0000 C   0  0
   22.5762  -28.2383    0.0000 O   0  0
   21.8618  -28.6509    0.0000 C   0  0
   21.8620  -29.4760    0.0000 C   0  0
   21.1476  -29.8887    0.0000 O   0  0
   25.4360  -29.8889    0.0000 O   0  0
   26.1499  -29.4752    0.0000 C   0  0
   26.8650  -29.8866    0.0000 C   0  0
   27.5789  -29.4730    0.0000 C   0  0
   26.8663  -30.7117    0.0000 O   0  0
   28.2939  -29.8844    0.0000 N   0  0
   29.0078  -29.4708    0.0000 C   0  0
   29.7229  -29.8822    0.0000 C   0  0
   30.4368  -29.4686    0.0000 N   0  0
   31.1520  -29.8800    0.0000 C   0  0
   31.8657  -29.4663    0.0000 N   0  0
   31.1532  -30.7049    0.0000 O   0  0
   32.5809  -29.8777    0.0000 C   0  0
   32.5784  -30.7018    0.0000 C   0  0
   33.2927  -31.1131    0.0000 C   0  0
   34.0075  -30.6994    0.0000 C   0  0
   34.0036  -29.8701    0.0000 C   0  0
   33.2887  -29.4625    0.0000 C   0  0
   20.4330  -29.4767    0.0000 C   0  0
   20.4439  -28.6509    0.0000 C   0  0
   19.6695  -28.3858    0.0000 C   0  0
   19.1749  -29.0464    0.0000 C   0  0
   19.6460  -29.7200    0.0000 C   0  0
   34.7160  -29.4539    0.0000 F   0  0
  1  2  2  0
  2  3  1  0
  3  4  2  0
  4  5  1  0
  5  6  2  0
  6  1  1  0
  1  7  1  0
  7  8  1  0
  8  9  1  0
  9 10  1  0
  4 11  1  0
 11 12  1  0
 12 13  1  0
 13 14  1  0
 13 15  1  0
 14 16  1  0
 16 17  1  0
 17 18  1  0
 18 19  1  0
 19 20  1  0
 20 21  1  0
 20 22  2  0
 21 23  1  0
 23 24  2  0
 24 25  1  0
 25 26  2  0
 26 27  1  0
 27 28  2  0
 28 23  1  0
 10 29  1  0
 29 30  1  0
 30 31  1  0
 31 32  1  0
 32 33  1  0
 33 29  1  0
 27 34  1  0
M  END