
  SciTegic06181315362D

 34 36  0  0  0  0            999 V2000
    5.9777  -28.2455    0.0000 C   0  0
    5.9765  -29.0729    0.0000 C   0  0
    6.6914  -29.4857    0.0000 C   0  0
    7.4077  -29.0724    0.0000 C   0  0
    7.4049  -28.2418    0.0000 C   0  0
    6.6895  -27.8328    0.0000 C   0  0
    5.2631  -27.8332    0.0000 O   0  0
    4.5487  -28.2459    0.0000 C   0  0
    4.5489  -29.0709    0.0000 C   0  0
    3.8346  -29.4835    0.0000 O   0  0
    8.1229  -29.4838    0.0000 O   0  0
    8.8367  -29.0702    0.0000 C   0  0
    9.5518  -29.4815    0.0000 C   0  0
   10.2656  -29.0679    0.0000 C   0  0
    9.5531  -30.3065    0.0000 O   0  0
   10.9807  -29.4793    0.0000 N   0  0
   11.6946  -29.0656    0.0000 C   0  0
   12.4096  -29.4770    0.0000 C   0  0
   13.1235  -29.0634    0.0000 N   0  0
   13.8385  -29.4748    0.0000 C   0  0
   14.5524  -29.0612    0.0000 N   0  0
   13.8399  -30.2998    0.0000 O   0  0
   15.2675  -29.4726    0.0000 C   0  0
   15.2650  -30.2967    0.0000 C   0  0
   15.9793  -30.7079    0.0000 C   0  0
   16.6941  -30.2942    0.0000 C   0  0
   16.6901  -29.4650    0.0000 C   0  0
   15.9752  -29.0574    0.0000 C   0  0
    3.1199  -29.0716    0.0000 C   0  0
    3.1308  -28.2459    0.0000 C   0  0
    2.3566  -27.9807    0.0000 C   0  0
    1.8620  -28.6412    0.0000 C   0  0
    2.3331  -29.3148    0.0000 C   0  0
   15.9702  -28.2324    0.0000 F   0  0
  1  2  2  0
  2  3  1  0
  3  4  2  0
  4  5  1  0
  5  6  2  0
  6  1  1  0
  1  7  1  0
  7  8  1  0
  8  9  1  0
  9 10  1  0
  4 11  1  0
 11 12  1  0
 12 13  1  0
 13 14  1  0
 13 15  1  0
 14 16  1  0
 16 17  1  0
 17 18  1  0
 18 19  1  0
 19 20  1  0
 20 21  1  0
 20 22  2  0
 21 23  1  0
 23 24  2  0
 24 25  1  0
 25 26  2  0
 26 27  1  0
 27 28  2  0
 28 23  1  0
 10 29  1  0
 29 30  1  0
 30 31  1  0
 31 32  1  0
 32 33  1  0
 33 29  1  0
 28 34  1  0
M  END