
  SciTegic12231509382D

 22 23  0  0  0  0            999 V2000
    8.0667   -5.1875    0.0000 C   0  0
    7.7292   -4.5917    0.0000 C   0  0
    7.3875   -5.1917    0.0000 C   0  0
    0.2417   -6.5667    0.0000 N   0  0
    2.6292   -6.5750    0.0000 O   0  0
    1.4292   -6.5750    0.0000 C   0  0  1  0  0  0
    3.2167   -6.2375    0.0000 C   0  0
    0.8417   -6.2292    0.0000 C   0  0
    2.0292   -6.2292    0.0000 C   0  0
    4.4167   -5.5417    0.0000 C   0  0
    3.8167   -6.5792    0.0000 C   0  0
    3.2167   -5.5417    0.0000 C   0  0
    3.8167   -5.2000    0.0000 C   0  0
    4.4167   -6.2375    0.0000 C   0  0
    1.4292   -7.2625    0.0000 O   0  0
    6.7917   -5.5375    0.0000 C   0  0
    6.2000   -5.1917    0.0000 O   0  0
   -0.3500   -6.2250    0.0000 C   0  0
    5.0042   -5.2000    0.0000 C   0  0
    5.6042   -5.5375    0.0000 C   0  0
   -0.3458   -5.5375    0.0000 C   0  0
   -0.9458   -6.5667    0.0000 C   0  0
  2  1  1  0
  3  1  1  0
  4  8  1  0
  5  7  1  0
  6  9  1  0
  7 12  2  0
  8  6  1  0
  9  5  1  0
 10 19  1  0
 11 14  2  0
 12 13  1  0
 13 10  2  0
 14 10  1  0
  6 15  1  1
 16  3  1  0
 17 16  1  0
 18  4  1  0
 19 20  1  0
 20 17  1  0
 21 18  1  0
 22 18  1  0
  2  3  1  0
  7 11  1  0
M  END