
  SciTegic03281309372D

 25 26  0  0  1  0            999 V2000
   -2.6177   -0.1932    0.0000 C   0  0
   -1.9077    0.1835    0.0000 C   0  0
   -1.2122   -0.2318    0.0000 C   0  0
   -2.6177   -1.0287    0.0000 C   0  0
   -3.9797   -0.2367    0.0000 C   0  0
   -3.2987    0.2029    0.0000 N   0  0
    0.9177    0.1980    0.0000 N   0  0
   -1.2122   -1.0336    0.0000 C   0  0
   -3.9652   -1.0336    0.0000 O   0  0
   -1.9222   -1.4538    0.0000 C   0  0
    0.2077   -0.2173    0.0000 C   0  0
   -0.5167    0.1980    0.0000 C   0  0
    3.0766   -0.2173    0.0000 C   0  0
    4.5110   -1.0577    0.0000 C   0  0
    2.3618    0.1980    0.0000 C   0  0
   -3.2746   -1.4248    0.0000 O   0  0
    3.8011    0.1884    0.0000 C   0  0
    3.0766   -1.0481    0.0000 C   0  0
    4.5110   -0.2173    0.0000 C   0  0
    3.8011   -1.4634    0.0000 C   0  0
   -0.5167    1.0722    0.0000 O   0  0
    1.6422   -0.2173    0.0000 C   0  0
    5.2355   -1.4683    0.0000 O   0  0
    5.9551   -1.0577    0.0000 C   0  0
    1.6422   -1.0432    0.0000 C   0  0
  2  1  1  0
  3  2  2  0
  4  1  2  0
  5  6  1  0
  6  1  1  0
  7 11  1  0
  8 10  2  0
  9  5  2  0
 10  4  1  0
 11 12  1  0
 12  3  1  0
 13 15  1  0
 14 20  2  0
 15 22  1  0
 16  4  1  0
 17 13  1  0
 18 13  2  0
 19 17  2  0
 20 18  1  0
 12 21  1  0
 22  7  1  0
 23 14  1  0
 24 23  1  0
 22 25  1  0
  3  8  1  0
 19 14  1  0
M  END