
  SciTegic10301317112D

 79 84  0  0  1  0            999 V2000
    2.9903   -2.0033    0.0000 N   0  0
    5.3101   -9.1875    0.0000 N   0  0
    3.6900   -1.5993    0.0000 C   0  0  1  0  0  0
    5.6141   -9.9496    0.0000 C   0  0
    4.4147   -2.0116    0.0000 C   0  0
    2.5530   -2.7113    0.0000 C   0  0
    5.3392  -11.3990    0.0000 N   0  0
    4.8478   -8.5086    0.0000 C   0  0  1  0  0  0
    5.1226   -1.5993    0.0000 N   0  0
    5.1102  -10.6076    0.0000 C   0  0  2  0  0  0
    2.9404   -3.4401    0.0000 C   0  0  1  0  0  0
    2.2782   -1.5993    0.0000 C   0  0
    2.9362   -4.8478    0.0000 C   0  0
    2.5031   -4.1398    0.0000 N   0  0
    3.6900   -0.7746    0.0000 C   0  0
    4.0232   -8.4753    0.0000 C   0  0
    6.0639  -11.8071    0.0000 C   0  0
    2.4614   -5.5641    0.0000 C   0  0  1  0  0  0
    5.8473   -2.8404    0.0000 C   0  0
    6.9260  -15.6845    0.0000 C   0  0
    8.6877    0.4706    0.0000 C   0  0
    2.8529   -6.2888    0.0000 N   0  0
    6.5637   -3.2485    0.0000 N   0  0
    7.9880   -3.2402    0.0000 C   0  0
    6.1014   -8.9626    0.0000 C   0  0
    2.2740   -0.7746    0.0000 C   0  0
    5.3517   -7.8589    0.0000 C   0  0
    2.9778   -0.3623    0.0000 C   0  0
    0.9246   -5.9640    0.0000 C   0  0
    1.6367   -5.5392    0.0000 C   0  0
    5.8473   -2.0116    0.0000 C   0  0
    2.4156   -7.0010    0.0000 C   0  0
    3.6275   -7.7506    0.0000 N   0  0
    0.1541   -5.6474    0.0000 S   0  0
    6.4345  -10.0621    0.0000 O   0  0
    7.2759   -2.8362    0.0000 C   0  0  2  0  0  0
    4.4147   -2.8404    0.0000 O   0  0
    9.3999    0.8871    0.0000 N   0  0
    6.1264  -15.4721    0.0000 N   0  0
    1.7284   -2.6780    0.0000 O   0  0
    3.7233   -4.8895    0.0000 O   0  0
    6.1264   -8.1380    0.0000 C   0  0  2  0  0  0
   -0.3873   -6.2721    0.0000 C   0  0
    3.5776   -9.1750    0.0000 O   0  0
    6.7761  -11.3823    0.0000 O   0  0
    5.1226   -0.7788    0.0000 C   0  0
    0.8496   -6.8011    0.0000 C   0  0
    5.1351   -3.2527    0.0000 O   0  0
    8.7085   -2.8279    0.0000 O   0  0
    0.0375   -6.9843    0.0000 C   0  0
    1.5910   -6.9718    0.0000 O   0  0
    7.5091  -15.0973    0.0000 N   0  0
    8.6960   -0.3540    0.0000 N   0  0
    2.8029   -7.7257    0.0000 C   0  0
    7.1509  -16.4799    0.0000 N   0  0
    7.9755    0.8829    0.0000 N   0  0
    4.6521  -11.8613    0.0000 C   0  0
    7.9963   -4.0648    0.0000 O   0  0
    3.7650   -3.4651    0.0000 C   0  0
    4.2855  -10.5743    0.0000 C   0  0
    6.8136   -7.6840    0.0000 O   0  0
    6.0639  -12.6317    0.0000 C   0  0
    4.1523   -4.1898    0.0000 O   0  0
    4.0024  -11.3573    0.0000 C   0  0
    1.5535   -0.3665    0.0000 C   0  0
    2.9778    0.4623    0.0000 C   0  0
    7.2717   -2.0116    0.0000 C   0  0
    7.5008  -14.2726    0.0000 C   0  0
    7.9838   -0.7663    0.0000 C   0  0
    4.4105   -0.3665    0.0000 C   0  0
    5.8390   -0.3623    0.0000 C   0  0
    6.7844  -13.0357    0.0000 C   0  0
    7.9880   -1.5910    0.0000 C   0  0
    6.7886  -13.8603    0.0000 C   0  0
    1.5535    0.4581    0.0000 C   0  0
    2.2657    0.8746    0.0000 C   0  0
    4.4105    0.4581    0.0000 C   0  0
    5.8390    0.4581    0.0000 C   0  0
    5.1226    0.8704    0.0000 C   0  0
  2  8  1  0
  3  1  1  0
  4  2  1  0
  3  5  1  6
  6  1  1  0
  7 10  1  0
  8 16  1  1
  9  5  1  0
 10  4  1  6
 11  6  1  0
 12  1  1  0
 13 14  1  0
 14 11  1  0
 15  3  1  0
 16 33  1  0
 17  7  1  0
 18 13  1  0
 19 31  1  0
 20 52  1  0
 21 53  1  0
 22 18  1  0
 23 19  1  0
 24 36  1  0
 25  2  1  0
 26 12  1  0
 27  8  1  0
 28 26  1  0
 29 30  1  0
 18 30  1  1
 31  9  1  0
 32 22  1  0
 33 54  1  0
 34 29  1  0
 35  4  2  0
 36 23  1  0
 37  5  2  0
 38 21  2  0
 39 20  2  0
 40  6  2  0
 41 13  2  0
 42 27  1  0
 43 34  1  0
 44 16  2  0
 45 17  2  0
 46  9  1  0
 47 29  2  0
 48 19  2  0
 49 24  2  0
 50 47  1  0
 51 32  2  0
 52 68  1  0
 53 69  1  0
 54 32  1  0
 55 20  1  0
 56 21  1  0
 57  7  1  0
 58 24  1  0
 11 59  1  6
 60 10  1  0
 42 61  1  6
 62 17  1  0
 63 59  1  0
 64 60  1  0
 65 26  2  0
 66 28  2  0
 36 67  1  1
 68 74  1  0
 69 73  1  0
 70 46  1  0
 71 46  1  0
 72 62  1  0
 73 67  1  0
 74 72  1  0
 75 65  1  0
 76 75  2  0
 77 70  1  0
 78 71  1  0
 79 78  1  0
 28 15  1  0
 76 66  1  0
 79 77  1  0
 50 43  2  0
 42 25  1  0
 57 64  1  0
M  END