
  CDK    9/16/09,9:41

 24 26  0  0  0  0  0  0  0  0999 V2000
    8.3653    0.2284    0.0000 C   0  0  0  0  0  0  0  0  0  0  0  0
    7.9799   -0.5010    0.0000 C   0  0  0  0  0  0  0  0  0  0  0  0
    8.4188   -1.1972    0.0000 C   0  0  0  0  0  0  0  0  0  0  0  0
    9.1851    0.2619    0.0000 C   0  0  0  0  0  0  0  0  0  0  0  0
    9.2457   -1.1641    0.0000 C   0  0  0  0  0  0  0  0  0  0  0  0
    9.6262   -0.4314    0.0000 C   0  0  0  0  0  0  0  0  0  0  0  0
    9.5856   -1.9229    0.0000 C   0  0  0  0  0  0  0  0  0  0  0  0
   10.3904   -2.1293    0.0000 N   0  0  0  0  0  0  0  0  0  0  0  0
   11.0518   -1.6271    0.0000 C   0  0  0  0  0  0  0  0  0  0  0  0
    9.0555   -2.5519    0.0000 O   0  0  0  0  0  0  0  0  0  0  0  0
   10.5532   -2.9356    0.0000 C   0  0  0  0  0  0  0  0  0  0  0  0
   10.4393   -0.2670    0.0000 N   0  0  0  0  0  0  0  0  0  0  0  0
   11.0768   -0.7991    0.0000 C   0  0  0  0  0  0  0  0  0  0  0  0
   11.7800   -0.3573    0.0000 C   0  0  0  0  0  0  0  0  0  0  0  0
   11.5770    0.4481    0.0000 N   0  0  0  0  0  0  0  0  0  0  0  0
   10.7483    0.5039    0.0000 C   0  0  0  0  0  0  0  0  0  0  0  0
   12.5450   -0.6634    0.0000 C   0  0  0  0  0  0  0  0  0  0  0  0
   12.6615   -1.4777    0.0000 O   0  0  0  0  0  0  0  0  0  0  0  0
   13.1918   -0.1554    0.0000 O   0  0  0  0  0  0  0  0  0  0  0  0
   13.4249   -1.7839    0.0000 C   0  0  0  0  0  0  0  0  0  0  0  0
   13.5416   -2.5981    0.0000 C   0  0  0  0  0  0  0  0  0  0  0  0
    7.1541   -0.5089    0.0000 N   0  0  0  0  0  0  0  0  0  0  0  0
    6.5708    0.0760    0.0000 N   0  0  0  0  0  0  0  0  0  0  0  0
    5.9899    0.6582    0.0000 N   0  0  0  0  0  0  0  0  0  0  0  0
  8 11  1  0  0  0  0 
 12 13  1  0  0  0  0 
  2  3  1  0  0  0  0 
  5  6  1  0  0  0  0 
  6 12  1  0  0  0  0 
  3  5  2  0  0  0  0 
  5  7  1  0  0  0  0 
 13 14  2  0  0  0  0 
 14 15  1  0  0  0  0 
 15 16  2  0  0  0  0 
 16 12  1  0  0  0  0 
  1  2  2  0  0  0  0 
  7  8  1  0  0  0  0 
  6  4  2  0  0  0  0 
 17 18  1  0  0  0  0 
 17 19  2  0  0  0  0 
 14 17  1  0  0  0  0 
 13  9  1  0  0  0  0 
 18 20  1  0  0  0  0 
  8  9  1  0  0  0  0 
 20 21  1  0  0  0  0 
  4  1  1  0  0  0  0 
  2 22  1  0  0  0  0 
  7 10  2  0  0  0  0 
 22 23  2  0  0  0  0 
 23 24  2  0  0  0  0 
M  CHG  1  23   1
M  CHG  1  24  -1
M  END