
  SciTegic11201309402D

 30 33  0  0  0  0            999 V2000
    2.0329   -0.4066    0.0000 C   0  0
    2.8450   -0.2614    0.0000 C   0  0
    3.1253    0.5145    0.0000 C   0  0
    2.5935    1.1452    0.0000 C   0  0
    1.7813    1.0000    0.0000 C   0  0
    1.2495    1.6307    0.0000 C   0  0
    0.4374    1.4855    0.0000 C   0  0
    0.1571    0.7096    0.0000 C   0  0  2  0  0  0
    0.6889    0.0789    0.0000 C   0  0  1  0  0  0
    1.5010    0.2241    0.0000 C   0  0  1  0  0  0
    0.4086   -0.6970    0.0000 C   0  0  2  0  0  0
   -0.4035   -0.8423    0.0000 C   0  0
   -0.9353   -0.2116    0.0000 C   0  0  1  0  0  0
   -0.6550    0.5644    0.0000 C   0  0  1  0  0  0
   -1.3063    1.0707    0.0000 C   0  0
   -1.9892    0.6077    0.0000 C   0  0  2  0  0  0
   -1.7599   -0.1847    0.0000 C   0  0  2  0  0  0
   -1.2952   -0.9539    0.0000 C   0  0
    1.2207   -0.5518    0.0000 C   0  0
   -2.5208   -0.5036    0.0000 C   0  0
   -2.6250   -1.3220    0.0000 C   0  0
   -2.7651    0.8880    0.0000 C   0  0
    0.7485   -0.7440    0.0000 F   0  0
    3.9374    0.6597    0.0000 O   0  0
    0.9404   -1.3278    0.0000 O   0  0
   -1.8813   -1.0008    0.0000 O   0  0
   -3.1774   -0.0041    0.0000 O   0  0
   -1.9685   -1.8215    0.0000 O   0  0
   -0.4154    1.5353    0.0000 H   0  0
   -0.4875    1.4741    0.0000 H   0  0
  1  2  2  0
  1 10  1  0
  2  3  1  0
  3  4  1  0
  3 24  2  0
  4  5  2  0
  5  6  1  0
 10  5  1  0
  6  7  1  0
  8  7  1  0
  8  9  1  0
 14  8  1  0
 10  9  1  0
 11  9  1  0
  9 23  1  6
 10 19  1  1
 11 12  1  0
 11 25  1  1
 12 13  1  0
 13 14  1  0
 13 17  1  0
 13 18  1  1
 14 15  1  0
 15 16  1  0
 16 17  1  0
 16 22  1  6
 17 20  1  0
 17 26  1  6
 20 21  1  0
 20 27  2  0
 21 28  1  0
 14 29  1  6
  8 30  1  1
M  END