
  SciTegic06181315362D

 35 37  0  0  0  0            999 V2000
   23.6067  -24.8414    0.0000 C   0  0
   23.6055  -25.6687    0.0000 C   0  0
   24.3203  -26.0816    0.0000 C   0  0
   25.0367  -25.6683    0.0000 C   0  0
   25.0339  -24.8377    0.0000 C   0  0
   24.3185  -24.4286    0.0000 C   0  0
   22.8921  -24.4291    0.0000 O   0  0
   22.1777  -24.8417    0.0000 C   0  0
   22.1779  -25.6667    0.0000 C   0  0
   21.4635  -26.0794    0.0000 O   0  0
   25.7519  -26.0796    0.0000 O   0  0
   26.4656  -25.6660    0.0000 C   0  0
   27.1808  -26.0773    0.0000 C   0  0
   27.8946  -25.6637    0.0000 C   0  0
   27.1821  -26.9023    0.0000 O   0  0
   28.6097  -26.0751    0.0000 N   0  0
   29.3235  -25.6615    0.0000 C   0  0
   30.0386  -26.0729    0.0000 C   0  0
   30.7524  -25.6593    0.0000 N   0  0
   31.4675  -26.0707    0.0000 C   0  0
   32.1814  -25.6571    0.0000 N   0  0
   31.4688  -26.8957    0.0000 O   0  0
   32.8964  -26.0684    0.0000 C   0  0
   32.8940  -26.8925    0.0000 C   0  0
   33.6082  -27.3037    0.0000 C   0  0
   34.3231  -26.8901    0.0000 C   0  0
   34.3191  -26.0608    0.0000 C   0  0
   33.6043  -25.6532    0.0000 C   0  0
   20.7489  -25.6675    0.0000 C   0  0
   20.7598  -24.8417    0.0000 C   0  0
   19.9856  -24.5766    0.0000 C   0  0
   19.4910  -25.2371    0.0000 C   0  0
   19.9620  -25.9107    0.0000 C   0  0
   35.0387  -27.3005    0.0000 O   0  0
   35.0411  -28.1255    0.0000 C   0  0
  1  2  2  0
  2  3  1  0
  3  4  2  0
  4  5  1  0
  5  6  2  0
  6  1  1  0
  1  7  1  0
  7  8  1  0
  8  9  1  0
  9 10  1  0
  4 11  1  0
 11 12  1  0
 12 13  1  0
 13 14  1  0
 13 15  1  0
 14 16  1  0
 16 17  1  0
 17 18  1  0
 18 19  1  0
 19 20  1  0
 20 21  1  0
 20 22  2  0
 21 23  1  0
 23 24  2  0
 24 25  1  0
 25 26  2  0
 26 27  1  0
 27 28  2  0
 28 23  1  0
 10 29  1  0
 29 30  1  0
 30 31  1  0
 31 32  1  0
 32 33  1  0
 33 29  1  0
 26 34  1  0
 34 35  1  0
M  END