
  SciTegic12091219282D

 28 30  0  0  0  0            999 V2000
   -1.2458   -0.0417    0.0000 C   0  0
   -1.1375   -0.8500    0.0000 C   0  0
   -1.9875    0.2583    0.0000 C   0  0
   -2.5333   -1.0292    0.0000 N   0  0
   -2.6333   -0.2167    0.0000 C   0  0
   -1.7833   -1.3417    0.0000 C   0  0
   -0.5958    0.4333    0.0000 N   0  0
   -3.3833    0.0708    0.0000 C   0  0
   -2.0958    1.0625    0.0000 C   0  0
   -0.3833   -1.1625    0.0000 C   0  0
   -1.6833   -2.1417    0.0000 C   0  0
   -3.4875    0.8833    0.0000 C   0  0
   -0.2833   -1.9667    0.0000 C   0  0
   -2.8458    1.3708    0.0000 C   0  0
    2.9375    0.4833    0.0000 N   0  0
   -0.9333   -2.4667    0.0000 C   0  0
   -4.2458    1.1958    0.0000 Cl  0  0
    0.1417    0.1208    0.0000 C   0  0
    0.4542   -2.2792    0.0000 O   0  0
    1.5375    0.3000    0.0000 C   0  0
    2.1875    0.8000    0.0000 C   0  0
    3.5875    0.9750    0.0000 C   0  0
    3.0417   -0.3125    0.0000 C   0  0
    0.7875    0.6083    0.0000 C   0  0
    0.5542   -3.0917    0.0000 C   0  0
    0.2500   -0.6667    0.0000 C   0  0
    4.3417    0.6583    0.0000 C   0  0
    3.7917   -0.6250    0.0000 C   0  0
  2  1  2  0
  3  1  1  0
  4  5  1  0
  5  3  1  0
  6  2  1  0
  7  1  1  0
  8  5  2  0
  9  3  2  0
 10  2  1  0
 11  6  1  0
 12 14  2  0
 13 10  2  0
 14  9  1  0
 15 21  1  0
 16 13  1  0
 17 12  1  0
 18  7  1  0
 19 13  1  0
 20 24  1  0
 21 20  1  0
 22 15  1  0
 23 15  1  0
 24 18  1  0
 25 19  1  0
 26 18  1  0
 27 22  1  0
 28 23  1  0
  6  4  2  0
  8 12  1  0
 11 16  2  0
M  END