
  SciTegic12091219342D

 19 21  0  0  0  0            999 V2000
    4.9000   -6.5667    0.0000 N   0  0
    5.4708   -6.9833    0.0000 C   0  0
    4.3250   -6.9875    0.0000 C   0  0
    6.0417   -6.5708    0.0000 C   0  0
    5.2542   -7.6583    0.0000 C   0  0
    4.5458   -7.6583    0.0000 C   0  0
    3.7125   -6.6333    0.0000 C   0  0
    6.6542   -6.9250    0.0000 C   0  0
    5.1208   -5.8958    0.0000 C   0  0
    5.8250   -5.8958    0.0000 C   0  0
    3.7083   -5.9250    0.0000 O   0  0
    3.1000   -6.9917    0.0000 C   0  0
    6.6500   -7.6292    0.0000 O   0  0
    7.2667   -6.5708    0.0000 O   0  0
    3.1000   -7.7042    0.0000 C   0  0
    2.4875   -6.6375    0.0000 C   0  0
    2.4875   -8.0583    0.0000 C   0  0
    1.8750   -6.9917    0.0000 C   0  0
    1.8750   -7.7042    0.0000 C   0  0
  2  1  1  0
  3  1  1  0
  4  2  1  0
  5  2  2  0
  6  3  2  0
  7  3  1  0
  8  4  1  0
  9  1  1  0
 10  9  1  0
 11  7  2  0
 12  7  1  0
 13  8  2  0
 14  8  1  0
 15 12  1  0
 16 12  2  0
 17 15  2  0
 18 16  1  0
 19 18  2  0
 10  4  1  0
  5  6  1  0
 17 19  1  0
M  END