
  SciTegic12091219302D

 20 23  0  0  0  0            999 V2000
    0.0292    0.1208    0.0000 N   0  0
    1.3375    0.1208    0.0000 C   0  0
   -0.7708    1.1375    0.0000 C   0  0
    2.1500    1.1375    0.0000 C   0  0
   -0.4833    2.4083    0.0000 C   0  0
    1.8542    2.4083    0.0000 C   0  0
   -0.6208   -1.0042    0.0000 C   0  0
    1.3292   -2.1375    0.0000 N   0  0
    0.6875    2.9833    0.0000 C   0  0
    1.9917   -1.0042    0.0000 C   0  0
    0.0375   -2.1375    0.0000 C   0  0
   -2.0208    0.7458    0.0000 C   0  0
    3.3917    0.7458    0.0000 C   0  0
    1.9792   -3.2917    0.0000 C   0  0
    2.8125    3.2958    0.0000 C   0  0
   -1.4375    3.2958    0.0000 C   0  0
    4.3417    1.6375    0.0000 C   0  0
   -2.9625    1.6375    0.0000 C   0  0
   -2.6708    2.9083    0.0000 C   0  0
    4.0500    2.9083    0.0000 C   0  0
  2  1  1  0
  3  1  1  0
  4  2  1  0
  5  3  2  0
  6  4  1  0
  7  1  1  0
  8 11  1  0
  9  5  1  0
 10  2  1  0
 11  7  1  0
 12  3  1  0
 13  4  2  0
 14  8  1  0
 15  6  2  0
 16  5  1  0
 17 13  1  0
 18 12  2  0
 19 18  1  0
 20 17  2  0
 10  8  1  0
  6  9  1  0
 16 19  2  0
 15 20  1  0
M  END