
  SciTegic01091215432D

 58 64  0  0  0  0            999 V2000
   -3.0139  -20.3250    0.0000 C   0  0
   -3.0151  -21.1523    0.0000 C   0  0
   -2.3003  -21.5652    0.0000 C   0  0
   -2.3021  -19.9122    0.0000 C   0  0
   -1.5867  -20.3213    0.0000 C   0  0
   -1.5859  -21.1482    0.0000 C   0  0
   -0.8706  -21.5591    0.0000 C   0  0
   -0.1556  -21.1444    0.0000 C   0  0
   -0.1604  -20.3144    0.0000 C   0  0
   -0.8763  -19.9072    0.0000 C   0  0
   -0.8806  -19.0822    0.0000 O   0  0
   -0.1684  -18.6659    0.0000 C   0  0
    0.5483  -19.0746    0.0000 C   0  0
    1.2606  -18.6583    0.0000 C   0  0
    0.5527  -19.8996    0.0000 O   0  0
    1.9772  -19.0670    0.0000 N   0  0
    2.6895  -18.6507    0.0000 C   0  0
    3.4061  -19.0595    0.0000 C   0  0
    4.1184  -18.6432    0.0000 N   0  0
    4.8351  -19.0519    0.0000 C   0  0
    5.5473  -18.6356    0.0000 C   0  0
    4.8394  -19.8769    0.0000 O   0  0
    6.2640  -19.0443    0.0000 C   0  0
    6.2684  -19.8693    0.0000 C   0  0
    6.9850  -20.2780    0.0000 C   0  0
    6.9894  -21.1030    0.0000 C   0  0
    6.2771  -21.5193    0.0000 N   0  0
    6.2815  -22.3442    0.0000 C   0  0
    5.5692  -22.7605    0.0000 O   0  0
    6.9981  -22.7530    0.0000 C   0  0
    7.0025  -23.5779    0.0000 O   0  0
    7.7192  -23.9866    0.0000 C   0  0
    7.7183  -24.8094    0.0000 C   0  0
    8.4341  -25.2181    0.0000 C   0  0
    9.1473  -24.8017    0.0000 C   0  0
    9.1403  -23.9725    0.0000 C   0  0
    8.4239  -23.5676    0.0000 C   0  0
    9.8645  -25.2095    0.0000 C   0  0
   10.5762  -24.7922    0.0000 C   0  0
   11.2585  -25.2561    0.0000 C   0  0
   11.2890  -26.0785    0.0000 C   0  0
   12.0812  -26.3087    0.0000 C   0  0
   12.0392  -24.9745    0.0000 N   0  0
   12.5413  -25.6274    0.0000 C   0  0
   13.3531  -25.5196    0.0000 C   0  0
   12.3491  -24.2139    0.0000 B   0  5
   12.3417  -23.3875    0.0000 F   0  0
   13.1673  -24.1070    0.0000 N   0  3
   13.6688  -24.7565    0.0000 C   0  0
   14.4415  -24.4803    0.0000 C   0  0
   14.4176  -23.6600    0.0000 C   0  0
   13.6301  -23.4294    0.0000 C   0  0
   13.3524  -22.6526    0.0000 C   0  0
   13.8138  -21.9719    0.0000 C   0  0
   13.3096  -21.3189    0.0000 C   0  0
   12.5327  -21.5966    0.0000 C   0  0
   12.5569  -22.4212    0.0000 S   0  0
   11.6292  -23.8000    0.0000 F   0  0
  3  6  1  0
 28 29  2  0
 13 14  1  0
 28 30  1  0
  6  7  1  0
 30 31  1  0
 13 15  1  0
 31 32  1  0
  1  2  1  0
 32 33  2  0
 14 16  1  0
 33 34  1  0
  7  8  2  0
 34 35  2  0
 16 17  1  0
 35 36  1  0
  5  4  1  0
 36 37  2  0
 37 32  1  0
 17 18  1  0
 35 38  1  0
  8  9  1  0
 38 39  2  0
 18 19  1  0
 39 40  1  0
 40 41  2  0
  4  1  2  0
 19 20  1  0
 41 42  1  0
 42 44  2  0
 43 40  1  0
 43 44  1  0
  9 10  2  0
 20 21  1  0
 10  5  1  0
 20 22  2  0
 43 46  1  0
 44 45  1  0
 45 49  2  0
 48 46  1  0
 46 47  1  0
 48 49  1  0
 21 23  1  0
 10 11  1  0
 23 24  1  0
  2  3  2  0
 24 25  1  0
 49 50  1  0
 50 51  2  0
 51 52  1  0
 52 48  2  0
 11 12  1  0
 52 53  1  0
 53 54  2  0
 25 26  1  0
  5  6  2  0
 26 27  1  0
 12 13  1  0
 54 55  1  0
 55 56  2  0
 56 57  1  0
 57 53  1  0
 27 28  1  0
 46 58  1  0
M  CHG  2  46  -1  48   1
M  END