
  SciTegic12231509382D

 11 11  0  0  0  0            999 V2000
    4.1250   -5.5250    0.0000 C   0  0
    2.8917   -6.2417    0.0000 C   0  0
    4.7417   -5.1750    0.0000 C   0  0
    5.3542   -6.2292    0.0000 N   0  0
    3.5042   -5.1792    0.0000 C   0  0
    4.1292   -6.2417    0.0000 C   0  0
    3.5042   -6.6000    0.0000 C   0  0
    2.8917   -5.5292    0.0000 C   0  0
    2.2750   -6.6000    0.0000 O   0  0
    5.3542   -5.5250    0.0000 C   0  0
    5.9667   -5.1667    0.0000 C   0  0
  2  8  2  0
  3  1  1  0
  4 10  1  0
  5  1  2  0
  6  1  1  0
  7  6  2  0
  8  5  1  0
  9  2  1  0
 10  3  1  0
 11 10  1  0
  2  7  1  0
M  END