
  SciTegic06181315362D

 34 36  0  0  0  0            999 V2000
   23.3775  -17.0998    0.0000 C   0  0
   23.3763  -17.9271    0.0000 C   0  0
   24.0912  -18.3400    0.0000 C   0  0
   24.8075  -17.9267    0.0000 C   0  0
   24.8047  -17.0961    0.0000 C   0  0
   24.0894  -16.6870    0.0000 C   0  0
   22.6630  -16.6875    0.0000 O   0  0
   21.9485  -17.1001    0.0000 C   0  0
   21.9487  -17.9251    0.0000 C   0  0
   21.2344  -18.3378    0.0000 O   0  0
   25.5227  -18.3381    0.0000 O   0  0
   26.2365  -17.9245    0.0000 C   0  0
   26.9516  -18.3358    0.0000 C   0  0
   27.6655  -17.9221    0.0000 C   0  0
   26.9529  -19.1608    0.0000 O   0  0
   28.3805  -18.3335    0.0000 N   0  0
   29.0944  -17.9199    0.0000 C   0  0
   29.8094  -18.3313    0.0000 C   0  0
   30.5233  -17.9177    0.0000 N   0  0
   31.2384  -18.3291    0.0000 C   0  0
   31.9522  -17.9155    0.0000 N   0  0
   31.2397  -19.1541    0.0000 O   0  0
   32.6673  -18.3269    0.0000 C   0  0
   32.6648  -19.1509    0.0000 C   0  0
   33.3791  -19.5622    0.0000 C   0  0
   34.0940  -19.1485    0.0000 C   0  0
   34.0899  -18.3192    0.0000 C   0  0
   33.3752  -17.9117    0.0000 C   0  0
   20.5197  -17.9259    0.0000 C   0  0
   20.5306  -17.1001    0.0000 C   0  0
   19.7564  -16.8350    0.0000 C   0  0
   19.2618  -17.4955    0.0000 C   0  0
   19.7329  -18.1691    0.0000 C   0  0
   34.8023  -17.9032    0.0000 C   0  0
  1  2  2  0
  2  3  1  0
  3  4  2  0
  4  5  1  0
  5  6  2  0
  6  1  1  0
  1  7  1  0
  7  8  1  0
  8  9  1  0
  9 10  1  0
  4 11  1  0
 11 12  1  0
 12 13  1  0
 13 14  1  0
 13 15  1  0
 14 16  1  0
 16 17  1  0
 17 18  1  0
 18 19  1  0
 19 20  1  0
 20 21  1  0
 20 22  2  0
 21 23  1  0
 23 24  2  0
 24 25  1  0
 25 26  2  0
 26 27  1  0
 27 28  2  0
 28 23  1  0
 10 29  1  0
 29 30  1  0
 30 31  1  0
 31 32  1  0
 32 33  1  0
 33 29  1  0
 27 34  1  0
M  END