
  SciTegic01161211252D

 46 52  0  0  0  0            999 V2000
   12.7038  -26.2855    0.0000 C   0  0
   12.7027  -27.1130    0.0000 C   0  0
   13.4175  -27.5258    0.0000 C   0  0
   13.4157  -25.8727    0.0000 C   0  0
   14.1312  -26.2819    0.0000 C   0  0
   14.1319  -27.1088    0.0000 C   0  0
   14.8472  -27.5198    0.0000 C   0  0
   15.5624  -27.1050    0.0000 C   0  0
   14.8416  -25.8677    0.0000 C   0  0
   15.5541  -26.2736    0.0000 C   0  0
   16.2598  -25.8596    0.0000 C   0  0
   14.8343  -25.0522    0.0000 N   0  0
   15.5370  -24.6359    0.0000 C   0  0
   16.2494  -25.0421    0.0000 N   0  0
   16.8558  -24.4901    0.0000 C   0  0
   16.5183  -23.7427    0.0000 C   0  0
   15.7032  -23.8329    0.0000 S   0  0
   16.9783  -26.2651    0.0000 C   0  0
   16.9817  -27.0909    0.0000 C   0  0
   17.6995  -27.4963    0.0000 C   0  0
   18.4109  -27.0767    0.0000 C   0  0
   18.4001  -26.2474    0.0000 C   0  0
   17.6819  -25.8457    0.0000 C   0  0
   16.9269  -23.0259    0.0000 C   0  0
   17.6638  -24.6574    0.0000 O   0  0
   16.5109  -22.3136    0.0000 C   0  0
   16.9222  -21.6011    0.0000 C   0  0
   16.5069  -20.8891    0.0000 C   0  0
   15.6811  -20.8927    0.0000 C   0  0
   15.2723  -21.6142    0.0000 C   0  0
   15.6899  -22.3232    0.0000 C   0  0
   16.9163  -20.1728    0.0000 O   0  0
   17.7414  -20.1692    0.0000 C   0  0
   15.2641  -20.1808    0.0000 O   0  0
   14.4390  -20.1860    0.0000 C   0  0
   14.0221  -19.4740    0.0000 C   0  0
   14.4323  -18.7588    0.0000 C   0  0
   14.0161  -18.0473    0.0000 C   0  0
   13.1901  -18.0520    0.0000 C   0  0
   12.7823  -18.7742    0.0000 C   0  0
   13.2009  -19.4826    0.0000 C   0  0
   14.4244  -17.3304    0.0000 C   0  0
   15.2495  -17.3256    0.0000 O   0  0
   14.0078  -16.6183    0.0000 O   0  0
   19.1300  -27.4812    0.0000 O   0  0
   19.1392  -28.3062    0.0000 C   0  0
  9 10  2  0
 21 22  1  0
 22 23  2  0
 23 18  1  0
 10 11  1  0
 16 24  2  0
 11 14  1  0
 15 25  2  0
  2  3  1  0
 24 26  1  0
 13 12  2  0
 26 27  2  0
 12  9  1  0
 27 28  1  0
 13 14  1  0
 28 29  2  0
  5  6  1  0
 29 30  1  0
  3  6  2  0
 30 31  2  0
 31 26  1  0
  6  7  1  0
 28 32  1  0
  1  2  2  0
 32 33  1  0
  7  8  1  0
 29 34  1  0
 14 15  1  0
 34 35  1  0
 15 16  1  0
 35 36  1  0
 16 17  1  0
 36 37  2  0
 17 13  1  0
 37 38  1  0
  8 10  1  0
 38 39  2  0
 11 18  1  0
 39 40  1  0
  9  5  1  0
 40 41  2  0
 41 36  1  0
 18 19  2  0
 38 42  1  0
  5  4  2  0
 42 43  2  0
 19 20  1  0
 42 44  1  0
  4  1  1  0
 21 45  1  0
 20 21  2  0
 45 46  1  0
M  END