
  SciTegic12091219302D

 26 29  0  0  0  0            999 V2000
    1.1917   -0.2375    0.0000 N   0  0
    1.8417   -0.9375    0.0000 C   0  0
    0.2792   -0.5042    0.0000 C   0  0
    3.3292   -0.0917    0.0000 C   0  0
    1.3500    0.6708    0.0000 C   0  0
    2.7875   -0.8792    0.0000 C   0  0
    3.0542    0.8000    0.0000 N   0  0
    2.1792    1.1583    0.0000 C   0  0
   -1.2875   -0.1167    0.0000 N   0  0
   -0.3833    0.1208    0.0000 C   0  0
    0.5292    1.1708    0.0000 N   0  0
   -3.1208   -0.6792    0.0000 N   0  0
    0.0917   -1.4375    0.0000 O   0  0
    4.2750   -0.2417    0.0000 O   0  0
   -1.5125   -1.0542    0.0000 C   0  0
   -1.9833    0.5083    0.0000 C   0  0
   -2.4333   -1.3292    0.0000 C   0  0
   -2.9083    0.2333    0.0000 C   0  0
    3.3167   -1.6750    0.0000 C   0  0
    1.4125   -1.8042    0.0000 C   0  0
    2.1792    2.1083    0.0000 C   0  0
   -4.0458   -0.9500    0.0000 C   0  0
    0.5292    2.1208    0.0000 C   0  0
    1.3542    2.5958    0.0000 C   0  0
    2.9000   -2.5250    0.0000 C   0  0
    1.9500   -2.5875    0.0000 C   0  0
  2  1  1  0
  3  1  1  0
  4  6  1  0
  5  1  1  0
  6  2  2  0
  7  8  1  0
  8  5  1  0
  9 10  1  0
 10  3  1  0
 11  5  2  0
 12 18  1  0
 13  3  2  0
 14  4  2  0
 15  9  1  0
 16  9  1  0
 17 15  1  0
 18 16  1  0
 19  6  1  0
 20  2  1  0
 21  8  2  0
 22 12  1  0
 23 11  1  0
 24 23  2  0
 25 26  1  0
 26 20  2  0
  7  4  1  0
 21 24  1  0
 19 25  2  0
 17 12  1  0
M  END