


 27 30  0  0  0  0            999 V2000
   -3.9998   -3.3589    0.0000 C   0  0  1  0  0  0
   -4.7143   -2.9464    0.0000 C   0  0
   -5.4288   -3.3589    0.0000 C   0  0
   -5.4288   -4.1839    0.0000 C   0  0
   -4.7143   -4.5964    0.0000 C   0  0
   -3.9998   -4.1839    0.0000 C   0  0
   -3.2853   -2.9464    0.0000 C   0  0  2  0  0  0
   -2.5708   -3.3589    0.0000 C   0  0  1  0  0  0
   -2.5708   -4.1839    0.0000 C   0  0
   -3.2853   -4.5964    0.0000 C   0  0
   -3.2853   -2.1214    0.0000 C   0  0
   -2.5709   -1.7089    0.0000 C   0  0
   -1.8564   -2.1214    0.0000 C   0  0  1  0  0  0
   -1.8564   -2.9464    0.0000 C   0  0  1  0  0  0
   -1.0718   -3.2013    0.0000 C   0  0
   -0.5869   -2.5338    0.0000 C   0  0
   -1.0718   -1.8664    0.0000 C   0  0
   -1.0718   -1.0414    0.0000 O   0  0
   -0.2749   -1.6529    0.0000 C   0  0
    0.5501   -1.6529    0.0000 C   0  0
   -1.8564   -3.7714    0.0000 H   0  0
   -2.5708   -2.5339    0.0000 H   0  0
   -3.2853   -3.7714    0.0000 H   0  0
   -3.9998   -2.5339    0.0000 H   0  0
   -1.8564   -1.2964    0.0000 C   0  0
   -2.5709   -0.8839    0.0000 C   0  0
   -6.1432   -4.5964    0.0000 O   0  0
  1  2  1  0
  2  3  1  0
  3  4  1  0
  4  5  1  0
  5  6  2  0
 10  6  1  0
  6  1  1  0
  1  7  1  0
  8  9  1  0
  9 10  1  0
  7 11  1  0
  8  7  1  0
 14  8  1  0
 11 12  1  0
 12 13  1  0
 13 17  1  0
 13 14  1  0
 14 15  1  0
 15 16  1  0
 16 17  1  0
 17 18  1  0
 17 19  1  0
 19 20  3  0
 14 21  1  6
  8 22  1  1
  7 23  1  6
  1 24  1  1
 13 25  1  1
 25 26  1  0
  4 27  2  0
M  END
