
  Mrv0541 04051115152D          

 33 36  0  0  0  0            999 V2000
   -0.0454   -1.7244    0.0000 C   0  0  0  0  0  0  0  0  0  0  0  0
   -0.8704   -1.7244    0.0000 C   0  0  0  0  0  0  0  0  0  0  0  0
   -1.3553   -2.3918    0.0000 C   0  0  0  0  0  0  0  0  0  0  0  0
    0.9711    4.4952    0.0000 N   0  0  0  0  0  0  0  0  0  0  0  0
   -2.4745   -5.1478    0.0000 C   0  0  0  0  0  0  0  0  0  0  0  0
   -2.8101   -4.3941    0.0000 C   0  0  0  0  0  0  0  0  0  0  0  0
   -2.3251   -3.7267    0.0000 C   0  0  0  0  0  0  0  0  0  0  0  0
   -2.6607   -2.9730    0.0000 C   0  0  0  0  0  0  0  0  0  0  0  0
    0.2566    0.7827    0.0000 C   0  0  0  0  0  0  0  0  0  0  0  0
    0.2566    1.6077    0.0000 C   0  0  0  0  0  0  0  0  0  0  0  0
    0.9711    2.0202    0.0000 C   0  0  0  0  0  0  0  0  0  0  0  0
    1.6855    0.7827    0.0000 C   0  0  0  0  0  0  0  0  0  0  0  0
    2.4000    0.3702    0.0000 C   0  0  0  0  0  0  0  0  0  0  0  0
    0.2566    3.2577    0.0000 C   0  0  0  0  0  0  0  0  0  0  0  0
    1.6855    3.2577    0.0000 C   0  0  0  0  0  0  0  0  0  0  0  0
    0.9711    5.3202    0.0000 C   0  0  0  0  0  0  0  0  0  0  0  0
    1.6855    5.7327    0.0000 C   0  0  0  0  0  0  0  0  0  0  0  0
   -0.4579    0.3702    0.0000 N   0  0  0  0  0  0  0  0  0  0  0  0
   -0.4579   -0.4548    0.0000 C   0  0  0  0  0  0  0  0  0  0  0  0
    0.2096   -0.9397    0.0000 N   0  0  0  0  0  0  0  0  0  0  0  0
   -1.1253   -0.9397    0.0000 S   0  0  0  0  0  0  0  0  0  0  0  0
   -1.0197   -3.1455    0.0000 N   0  0  0  0  0  0  0  0  0  0  0  0
   -1.5047   -3.8129    0.0000 C   0  0  0  0  0  0  0  0  0  0  0  0
   -1.1691   -4.5666    0.0000 C   0  0  0  0  0  0  0  0  0  0  0  0
   -1.6540   -5.2340    0.0000 C   0  0  0  0  0  0  0  0  0  0  0  0
   -0.3486   -4.6528    0.0000 Cl  0  0  0  0  0  0  0  0  0  0  0  0
   -2.1758   -2.3056    0.0000 O   0  0  0  0  0  0  0  0  0  0  0  0
    1.6855    1.6077    0.0000 N   0  0  0  0  0  0  0  0  0  0  0  0
    0.9711    0.3702    0.0000 N   0  0  0  0  0  0  0  0  0  0  0  0
    0.9711    2.8452    0.0000 N   0  0  0  0  0  0  0  0  0  0  0  0
    0.2566    4.0827    0.0000 C   0  0  0  0  0  0  0  0  0  0  0  0
    1.6855    4.0827    0.0000 C   0  0  0  0  0  0  0  0  0  0  0  0
    1.6855    6.5577    0.0000 O   0  0  0  0  0  0  0  0  0  0  0  0
  1  2  2  0  0  0  0
  1 20  1  0  0  0  0
  2  3  1  0  0  0  0
  2 21  1  0  0  0  0
  3 22  1  0  0  0  0
  3 27  2  0  0  0  0
 16  4  1  0  0  0  0
 31  4  1  0  0  0  0
 32  4  1  0  0  0  0
  5  6  2  0  0  0  0
 25  5  1  0  0  0  0
  6  7  1  0  0  0  0
  8  7  1  0  0  0  0
 23  7  2  0  0  0  0
  9 10  1  0  0  0  0
  9 18  1  0  0  0  0
  9 29  2  0  0  0  0
 10 11  2  0  0  0  0
 11 28  1  0  0  0  0
 11 30  1  0  0  0  0
 12 13  1  0  0  0  0
 12 28  2  0  0  0  0
 12 29  1  0  0  0  0
 14 30  1  0  0  0  0
 14 31  1  0  0  0  0
 15 30  1  0  0  0  0
 32 15  1  0  0  0  0
 16 17  1  0  0  0  0
 17 33  1  0  0  0  0
 19 18  1  0  0  0  0
 19 20  2  0  0  0  0
 19 21  1  0  0  0  0
 23 22  1  0  0  0  0
 23 24  1  0  0  0  0
 24 25  2  0  0  0  0
 24 26  1  0  0  0  0
M  END