
  SciTegic09251318272D

 38 41  0  0  0  0            999 V2000
   -0.4342   -1.1691    0.0000 C   0  0
    0.2297   -0.6931    0.0000 N   0  0
   -0.7015   -0.4927    0.0000 C   0  0
    0.9019   -1.1691    0.0000 C   0  0
   -0.5511    0.1962    0.0000 C   0  0
   -2.0125   -0.5804    0.0000 C   0  0
   -1.6743   -1.3695    0.0000 O   0  0
   -0.1837   -1.9583    0.0000 O   0  0
   -1.3361   -0.0293    0.0000 C   0  0
    0.6430   -1.9583    0.0000 C   0  0
   -0.0709   -0.2798    0.0000 C   0  0
    1.5699   -0.8935    0.0000 C   0  0
    0.4008    0.1962    0.0000 C   0  0
    5.8162   -0.9311    0.0000 N   0  0
   -1.9373    1.6743    0.0000 C   0  0
   -2.2880   -0.0418    0.0000 C   0  0
   -1.8120    0.4467    0.0000 C   0  0
   -0.0334    0.8977    0.0000 C   0  0
    1.6576   -0.1420    0.0000 O   0  0
   -2.7390    1.4613    0.0000 O   0  0
    2.2213   -1.3069    0.0000 N   0  0
   -0.6221    1.4864    0.0000 C   0  0
   -1.3403    1.0772    0.0000 C   0  0
   -1.7160    2.4759    0.0000 O   0  5
    5.1023   -1.3445    0.0000 C   0  0
    6.5302   -1.3403    0.0000 C   0  0
    5.8037   -0.1044    0.0000 C   0  0
    1.2317    0.2213    0.0000 C   0  0
    0.3675    1.6367    0.0000 C   0  0
    2.9603   -0.9394    0.0000 C   0  0
    4.3883   -0.9311    0.0000 C   0  0
    3.6743   -1.3528    0.0000 C   0  0
    6.5260    0.3131    0.0000 C   0  0
    7.2442   -0.9269    0.0000 C   0  0
    1.6284    0.9478    0.0000 C   0  0
    1.1942    1.6492    0.0000 C   0  0
    7.2442   -0.0919    0.0000 C   0  0
    3.4179   -2.9464    0.0000 Li  0  3
  2  1  2  0
  3  1  1  0
  4  2  1  0
  5  3  1  0
  6  3  1  0
  7  6  1  0
  8  1  1  0
  9  5  1  0
 10  8  1  0
 11  5  1  0
 12  4  1  0
 13 11  1  0
 14 25  1  0
 15 23  1  0
 16  6  1  0
 17 16  1  0
 18 13  2  0
 19 12  2  0
 20 15  2  0
 21 12  1  0
 22 18  1  0
 23 22  1  0
 24 15  1  0
 25 31  1  0
 26 14  1  0
 27 14  1  0
 28 13  1  0
 29 18  1  0
 30 21  1  0
 31 32  1  0
 32 30  1  0
 33 27  1  0
 34 26  1  0
 35 28  2  0
 36 35  1  0
 37 33  1  0
 10  4  2  0
  9  7  1  0
  9 17  1  0
 36 29  2  0
 37 34  1  0
M  CHG  2  24  -1  38   1
M  END