
  SciTegic09081514162D

 20 23  0  0  0  0            999 V2000
    2.1852   -2.6281    0.0000 N   0  0
    1.2781   -3.8165    0.0000 C   0  0
    1.8565   -5.2005    0.0000 C   0  0
    3.3443   -5.3916    0.0000 O   0  0
    4.2537   -4.1987    0.0000 C   0  0
    3.6753   -2.8147    0.0000 C   0  0
    0.2917   -0.7475    0.0000 C   0  0
    0.2917    0.7475    0.0000 C   0  0
   -1.0028    1.5132    0.0000 C   0  0
   -2.3155    0.7475    0.0000 C   0  0
   -2.3155   -0.7475    0.0000 C   0  0
   -1.0028   -1.5132    0.0000 N   0  0
    2.5889    0.0182    0.0000 S   0  0
    1.7138    1.2033    0.0000 N   0  0
    1.7138   -1.2033    0.0000 C   0  0
   -3.6168    1.4950    0.0000 C   0  0
   -4.9669    0.8708    0.0000 C   0  0
   -5.9732    1.9832    0.0000 O   0  0
   -5.2262    3.2840    0.0000 C   0  0
   -3.7582    2.9755    0.0000 C   0  0
  1  2  1  0
  2  3  1  0
  3  4  1  0
  4  5  1  0
  5  6  1  0
  1  6  1  0
  7  8  1  0
  8  9  1  0
  9 10  2  0
 10 11  1  0
 11 12  2  0
  7 12  1  0
 13 14  1  0
 13 15  1  0
  7 15  2  0
  8 14  2  0
 10 16  1  0
  1 15  1  0
 16 17  2  0
 17 18  1  0
 18 19  1  0
 19 20  2  0
 20 16  1  0
M  END