
  SciTegic06181315362D

 34 36  0  0  0  0            999 V2000
   24.6275   -1.6375    0.0000 C   0  0
   24.6263   -2.4648    0.0000 C   0  0
   25.3411   -2.8777    0.0000 C   0  0
   26.0576   -2.4643    0.0000 C   0  0
   26.0547   -1.6338    0.0000 C   0  0
   25.3393   -1.2247    0.0000 C   0  0
   23.9129   -1.2251    0.0000 O   0  0
   23.1985   -1.6378    0.0000 C   0  0
   23.1987   -2.4628    0.0000 C   0  0
   22.4844   -2.8755    0.0000 O   0  0
   26.7726   -2.8757    0.0000 O   0  0
   27.4865   -2.4621    0.0000 C   0  0
   28.2016   -2.8735    0.0000 C   0  0
   28.9154   -2.4599    0.0000 C   0  0
   28.2029   -3.6985    0.0000 O   0  0
   29.6306   -2.8712    0.0000 N   0  0
   30.3443   -2.4576    0.0000 C   0  0
   31.0595   -2.8689    0.0000 C   0  0
   31.7733   -2.4553    0.0000 N   0  0
   32.4884   -2.8667    0.0000 C   0  0
   33.2022   -2.4531    0.0000 N   0  0
   32.4897   -3.6917    0.0000 O   0  0
   33.9173   -2.8645    0.0000 C   0  0
   33.9149   -3.6886    0.0000 C   0  0
   34.6291   -4.0999    0.0000 C   0  0
   35.3439   -3.6862    0.0000 C   0  0
   35.3399   -2.8569    0.0000 C   0  0
   34.6251   -2.4494    0.0000 C   0  0
   21.7697   -2.4635    0.0000 C   0  0
   21.7806   -1.6378    0.0000 C   0  0
   21.0063   -1.3726    0.0000 C   0  0
   20.5117   -2.0332    0.0000 C   0  0
   20.9829   -2.7068    0.0000 C   0  0
   34.6204   -1.6208    0.0000 Cl  0  0
  1  2  2  0
  2  3  1  0
  3  4  2  0
  4  5  1  0
  5  6  2  0
  6  1  1  0
  1  7  1  0
  7  8  1  0
  8  9  1  0
  9 10  1  0
  4 11  1  0
 11 12  1  0
 12 13  1  0
 13 14  1  0
 13 15  1  0
 14 16  1  0
 16 17  1  0
 17 18  1  0
 18 19  1  0
 19 20  1  0
 20 21  1  0
 20 22  2  0
 21 23  1  0
 23 24  2  0
 24 25  1  0
 25 26  2  0
 26 27  1  0
 27 28  2  0
 28 23  1  0
 10 29  1  0
 29 30  1  0
 30 31  1  0
 31 32  1  0
 32 33  1  0
 33 29  1  0
 28 34  1  0
M  END