
  Mrv0541 04051115152D          

 16 17  0  0  0  0            999 V2000
   -0.5739   -0.2736    0.0000 O   0  0  0  0  0  0  0  0  0  0  0  0
    0.1405    0.1389    0.0000 C   0  0  0  0  0  0  0  0  0  0  0  0
    0.1405    0.9639    0.0000 N   0  0  0  0  0  0  0  0  0  0  0  0
    0.8550    1.3764    0.0000 C   0  0  0  0  0  0  0  0  0  0  0  0
    0.8550    2.2014    0.0000 N   0  0  0  0  0  0  0  0  0  0  0  0
    1.5695    0.9639    0.0000 C   0  0  0  0  0  0  0  0  0  0  0  0
    2.2839    1.3764    0.0000 F   0  0  0  0  0  0  0  0  0  0  0  0
    1.5695    0.1389    0.0000 C   0  0  0  0  0  0  0  0  0  0  0  0
    0.8550   -0.2736    0.0000 N   0  0  0  0  0  0  0  0  0  0  0  0
    0.8550   -1.0986    0.0000 C   0  0  1  0  0  0  0  0  0  0  0  0
    1.5224   -1.5835    0.0000 O   0  0  0  0  0  0  0  0  0  0  0  0
    1.2675   -2.3681    0.0000 C   0  0  1  0  0  0  0  0  0  0  0  0
    1.7524   -3.0356    0.0000 C   0  0  0  0  0  0  0  0  0  0  0  0
    2.5729   -2.9493    0.0000 O   0  0  0  0  0  0  0  0  0  0  0  0
    0.4425   -2.3681    0.0000 S   0  0  0  0  0  0  0  0  0  0  0  0
    0.1876   -1.5835    0.0000 C   0  0  0  0  0  0  0  0  0  0  0  0
  2  1  2  0  0  0  0
  2  3  1  0  0  0  0
  2  9  1  0  0  0  0
  4  3  2  0  0  0  0
  4  5  1  0  0  0  0
  4  6  1  0  0  0  0
  6  7  1  0  0  0  0
  6  8  2  0  0  0  0
  8  9  1  0  0  0  0
 10  9  1  1  0  0  0
 10 11  1  0  0  0  0
 10 16  1  0  0  0  0
 12 11  1  0  0  0  0
 12 13  1  1  0  0  0
 12 15  1  0  0  0  0
 13 14  1  0  0  0  0
 16 15  1  0  0  0  0
M  END