
  SciTegic11201309402D

 74 77  0  0  1  0            999 V2000
    3.1062   -6.3538    0.0000 C   0  0
    3.8172   -6.7655    0.0000 C   0  0  1  0  0  0
    3.2684   -7.3767    0.0000 C   0  0
    4.5325   -6.3538    0.0000 N   0  0
    3.1062   -5.5305    0.0000 C   0  0
    2.3120   -6.6116    0.0000 N   0  0
    2.9233   -8.1335    0.0000 N   0  0
    3.0106   -9.7594    0.0000 C   0  0
    7.6886  -10.2542    0.0000 N   0  0
    8.0254   -9.4974    0.0000 C   0  0  1  0  0  0
    5.6178  -11.4517    0.0000 N   0  0
    3.4305  -10.4704    0.0000 N   0  0
    7.1397  -10.8654    0.0000 C   0  0
    8.8238   -9.7095    0.0000 C   0  0
    4.7945  -11.3644    0.0000 C   0  0
    2.8442   -8.9568    0.0000 C   0  0  2  0  0  0
    6.4245  -11.2813    0.0000 C   0  0  2  0  0  0
    5.3392   -6.1792    0.0000 C   0  0
    2.3120   -5.2768    0.0000 C   0  0
    1.8338   -5.9421    0.0000 C   0  0
    9.0359  -10.5079    0.0000 N   0  0
    6.7156  -12.0505    0.0000 C   0  0
    4.0418  -11.0276    0.0000 C   0  0  2  0  0  0
   10.4205  -10.1419    0.0000 C   0  0
    4.5325   -5.5305    0.0000 C   0  0
   12.5911   -9.9839    0.0000 C   0  0
   12.3250   -6.2124    0.0000 C   0  0
    3.8172   -5.1146    0.0000 C   0  0
   11.2147  -10.3540    0.0000 N   0  0
    7.5347  -12.1795    0.0000 C   0  0
   13.1774   -9.3976    0.0000 N   0  0
    7.9381   -7.8715    0.0000 S   0  0
    9.8342  -10.7199    0.0000 C   0  0
    2.6322   -7.1355    0.0000 O   0  0
    7.5264   -7.1522    0.0000 S   0  0
   11.7928   -9.7719    0.0000 C   0  0  1  0  0  0
   14.5579   -9.0317    0.0000 C   0  0
    3.5179  -13.1483    0.0000 C   0  0
   12.9030   -5.6303    0.0000 N   0  0
    2.2454  -10.0588    0.0000 O   0  0
    7.6512  -11.3395    0.0000 O   0  0
    4.5824  -12.1628    0.0000 O   0  0
    9.4059   -9.1315    0.0000 O   0  0
    8.1127   -8.6824    0.0000 C   0  0
    6.1542   -6.2665    0.0000 C   0  0
    5.2935   -5.3558    0.0000 O   0  0
   12.8032  -10.7823    0.0000 O   0  0
   10.2043   -9.3435    0.0000 O   0  0
    8.0878  -11.7137    0.0000 O   0  0
    3.8921  -13.8843    0.0000 O   0  0
   14.3459   -8.2333    0.0000 O   0  0
    3.5927  -11.7179    0.0000 C   0  0
   12.5370   -7.0025    0.0000 N   0  0
   13.9758   -9.6097    0.0000 C   0  0
   11.5266   -6.0003    0.0000 N   0  0
    2.0209   -8.9984    0.0000 C   0  0  2  0  0  0
    7.8258  -12.9487    0.0000 N   0  0
    3.9669  -12.4539    0.0000 C   0  0
    2.6945  -13.1026    0.0000 N   0  0
   15.3605   -9.2437    0.0000 N   0  0
    6.9152   -6.6033    0.0000 C   0  0
    8.4495  -11.0942    0.0000 C   0  0
    1.9835   -4.5200    0.0000 C   0  0
    1.0104   -5.8548    0.0000 C   0  0
   11.5807   -8.9735    0.0000 C   0  0
   11.9549   -7.5888    0.0000 C   0  0
    1.6467   -9.7302    0.0000 C   0  0
    1.5718   -8.3081    0.0000 C   0  0
   12.1670   -8.3872    0.0000 C   0  0
    1.1601   -4.4327    0.0000 C   0  0
    0.6778   -5.1021    0.0000 C   0  0
    0.8150   -9.7801    0.0000 C   0  0
    2.1533   -8.2339    0.0000 H   0  0
    2.8295   -6.9220    0.0000 H   0  0
  2  1  1  0
  3  2  1  0
  4  2  1  0
  5  1  2  0
  6  1  1  0
  7  3  1  0
  8 16  1  0
  9 10  1  0
 10 44  1  0
 11 15  1  0
 12  8  1  0
 13  9  1  0
 10 14  1  6
 15 23  1  0
 16  7  1  0
 17 11  1  0
 18  4  1  0
 19  5  1  0
 20  6  1  0
 21 14  1  0
 17 22  1  6
 23 12  1  0
 24 33  1  0
 25 28  1  0
 26 36  1  0
 27 53  2  0
 28  5  1  0
 29 24  1  0
 30 22  1  0
 31 26  1  0
 32 35  1  0
 33 21  1  0
 34  3  2  0
 35 61  1  0
 36 29  1  1
 37 54  1  0
 38 58  1  0
 39 27  1  0
 40  8  2  0
 41 13  2  0
 42 15  2  0
 43 14  2  0
 44 32  1  0
 45 18  1  0
 46 18  2  0
 47 26  2  0
 48 24  2  0
 49 30  2  0
 50 38  2  0
 51 37  2  0
 23 52  1  6
 53 66  1  0
 54 31  1  0
 55 27  1  0
 16 56  1  0
 57 30  1  0
 58 52  1  0
 59 38  1  0
 60 37  1  0
 61 45  1  0
 62 21  1  0
 63 19  1  0
 64 20  1  0
 36 65  1  0
 66 69  1  0
 67 56  1  0
 56 68  1  6
 69 65  1  0
 70 63  2  0
 71 64  2  0
 72 67  1  0
 19 20  2  0
 25  4  1  0
 70 71  1  0
 17 13  1  0
 16 73  1  1
  2 74  1  1
M  END