
  SciTegic11201309402D

 94100  0  0  1  0            999 V2000
   14.8196   -5.5868    0.0000 N   0  0
   12.7985   -6.4653    0.0000 N   0  0
    3.7782   -7.1141    0.0000 N   0  0
   13.9928   -5.6213    0.0000 C   0  0
   13.6139   -6.3447    0.0000 C   0  0  1  0  0  0
    3.2958   -6.4481    0.0000 C   0  0
   15.2675   -4.8978    0.0000 C   0  0  2  0  0  0
    1.8834   -5.9486    0.0000 N   0  0
   12.0922   -6.8787    0.0000 C   0  0
    1.6594   -5.1390    0.0000 C   0  0
    4.6050   -7.1141    0.0000 C   0  0  2  0  0  0
   14.9861   -4.1341    0.0000 C   0  0
    2.4690   -6.5342    0.0000 C   0  0  1  0  0  0
   11.3746   -6.4768    0.0000 C   0  0  1  0  0  0
    9.9449   -6.4825    0.0000 C   0  0
    9.2386   -6.8960    0.0000 C   0  0  1  0  0  0
   12.4942   -7.2232    0.0000 C   0  0
   15.3192   -6.2356    0.0000 C   0  0
   10.6683   -6.8902    0.0000 N   0  0
   16.0599   -5.1217    0.0000 C   0  0
   -0.3445   -4.2605    0.0000 C   0  0
   14.1248   -6.9821    0.0000 C   0  0
   15.5087   -3.5025    0.0000 N   0  0
    0.4823   -4.3294    0.0000 N   0  0
    5.3227   -6.7065    0.0000 C   0  0
   16.0943   -5.9486    0.0000 C   0  0
    0.8326   -5.0701    0.0000 C   0  0  1  0  0  0
    8.5266   -6.4825    0.0000 N   0  0
   12.0636   -0.9360    0.0000 C   0  0
    2.3657   -1.6078    0.0000 C   0  0
    0.1264   -8.6185    0.0000 C   0  0
   15.7498   -2.0901    0.0000 C   0  0
    3.5198   -7.8950    0.0000 C   0  0
   13.0110   -7.8720    0.0000 C   0  0
    4.8634   -7.8950    0.0000 C   0  0
   13.8206   -7.7514    0.0000 C   0  0
    7.4586   -7.1027    0.0000 C   0  0
    6.0347   -7.1141    0.0000 N   0  0
   13.5450   -4.9265    0.0000 O   0  0
   15.2273   -2.7216    0.0000 C   0  0  2  0  0  0
    3.6346   -5.6902    0.0000 O   0  0
   11.7133   -0.1780    0.0000 N   0  0
    0.4823   -9.3706    0.0000 N   0  0
    3.1925   -1.6709    0.0000 N   0  0
   11.9085   -7.8261    0.0000 O   0  0
    2.1360   -4.4614    0.0000 O   0  0
    9.2386   -7.7170    0.0000 C   0  0
   14.1651   -3.9963    0.0000 O   0  0
    9.9449   -5.6557    0.0000 O   0  0
   -0.8210   -4.9437    0.0000 O   0  0
    4.1916   -8.3888    0.0000 C   0  0  2  0  0  0
    5.3227   -5.8797    0.0000 O   0  0
   16.5708   -2.2279    0.0000 O   0  0
    7.4586   -7.9295    0.0000 O   0  0
   -0.7005   -3.5140    0.0000 C   0  0  2  0  0  0
    0.6029   -7.9409    0.0000 N   0  0
   12.8904   -1.0049    0.0000 N   0  0
    1.8948   -2.2795    0.0000 N   0  0
    6.7409   -6.7007    0.0000 C   0  0
    2.0154   -0.8498    0.0000 N   0  0
   -0.7005   -8.5496    0.0000 N   0  0
   11.5813   -1.6078    0.0000 N   0  0
    1.1427   -6.3217    0.0000 C   0  0
   15.4684   -1.3149    0.0000 O   0  0
   11.3688   -5.6557    0.0000 C   0  0
   -1.5273   -3.4451    0.0000 N   0  0
    9.9563   -8.1190    0.0000 C   0  0
    2.0901   -7.2691    0.0000 C   0  0
    4.1916   -9.2156    0.0000 O   0  0
    9.9449   -7.3094    0.0000 C   0  0
   15.1814   -7.0452    0.0000 C   0  0
   12.0808   -5.2423    0.0000 O   0  0
    1.2747   -7.1371    0.0000 C   0  0
   16.7317   -6.4653    0.0000 C   0  0
    0.3617   -5.7591    0.0000 C   0  0
   12.7181   -8.6185    0.0000 C   0  0
   14.3201   -8.3888    0.0000 C   0  0
   14.4062   -2.5838    0.0000 C   0  0
   13.2349   -1.7628    0.0000 C   0  0
    0.2469   -7.1888    0.0000 C   0  0
    1.0680   -2.2106    0.0000 C   0  0
   -0.2239   -2.8308    0.0000 C   0  0
    9.9621   -8.9458    0.0000 C   0  0
   10.6683   -7.7055    0.0000 C   0  0
    0.7120   -6.4998    0.0000 C   0  0
   14.0617   -1.8317    0.0000 C   0  0
    0.5915   -2.8997    0.0000 C   0  0
   15.8187   -7.5677    0.0000 C   0  0
   16.5939   -7.2863    0.0000 C   0  0
   14.0273   -9.1467    0.0000 C   0  0
   13.2177   -9.2673    0.0000 C   0  0
   10.6683   -9.3534    0.0000 C   0  0
   11.3746   -8.1190    0.0000 C   0  0
   11.3860   -8.9458    0.0000 C   0  0
  2  5  1  0
  3 11  1  0
  4  1  1  0
  5  4  1  1
  6  3  1  0
  7  1  1  0
  8 13  1  0
  9  2  1  0
 10  8  1  0
 11 25  1  6
  7 12  1  6
 13  6  1  6
 14  9  1  0
 15 19  1  0
 16 15  1  0
 17  2  1  0
 18  1  1  0
 14 19  1  1
  7 20  1  0
 21 24  1  0
 22  5  1  0
 23 12  1  0
 27 24  1  6
 25 38  1  0
 26 18  1  0
 27 10  1  0
 28 16  1  0
 29 57  2  0
 30 58  2  0
 31 56  2  0
 32 40  1  0
 33  3  1  0
 34 36  2  0
 35 11  1  0
 36 22  1  0
 37 28  1  0
 38 59  1  0
 39  4  2  0
 40 23  1  1
 41  6  2  0
 42 29  1  0
 43 31  1  0
 44 30  1  0
 45  9  2  0
 46 10  2  0
 16 47  1  0
 48 12  2  0
 49 15  2  0
 50 21  2  0
 51 35  1  0
 52 25  2  0
 53 32  2  0
 54 37  2  0
 55 21  1  0
 56 80  1  0
 57 79  1  0
 58 81  1  0
 59 37  1  0
 60 30  1  0
 61 31  1  0
 62 29  1  0
 63  8  1  0
 64 32  1  0
 14 65  1  0
 55 66  1  6
 67 47  1  0
 68 13  1  0
 51 69  1  6
 16 70  1  1
 71 18  1  0
 72 65  1  0
 73 68  1  0
 74 26  1  0
 27 75  1  0
 76 34  1  0
 77 36  1  0
 40 78  1  0
 79 86  1  0
 80 85  1  0
 81 87  1  0
 55 82  1  0
 83 67  2  0
 84 67  1  0
 85 75  1  0
 86 78  1  0
 87 82  1  0
 88 71  1  0
 89 88  1  0
 90 77  2  0
 91 90  1  0
 92 83  1  0
 93 84  2  0
 94 93  1  0
 20 26  1  0
 74 89  1  0
 34 17  1  0
 91 76  2  0
 92 94  2  0
 51 33  1  0
 73 63  1  0
M  END