
          11290713132D 1   1.00000     0.00000     0

 63 70  0     1  0            999 V2000
    8.4392   -2.2983    0.0000 N   0  0  0  0  0  0           0  0  0
    9.1550   -2.7085    0.0000 C   0  0  0  0  0  0           0  0  0
    9.1577   -3.5335    0.0000 O   0  0  0  0  0  0           0  0  0
    9.8681   -2.2937    0.0000 C   0  0  0  0  0  0           0  0  0
   10.5839   -2.7039    0.0000 O   0  0  0  0  0  0           0  0  0
   10.5866   -3.5289    0.0000 C   0  0  0  0  0  0           0  0  0
    9.8750   -3.9406    0.0000 C   0  0  0  0  0  0           0  0  0
    9.8773   -4.7649    0.0000 C   0  0  0  0  0  0           0  0  0
   10.5936   -5.1759    0.0000 C   0  0  0  0  0  0           0  0  0
   11.3091   -4.7566    0.0000 C   0  0  0  0  0  0           0  0  0
   11.3033   -3.9338    0.0000 C   0  0  0  0  0  0           0  0  0
   10.5974   -6.0009    0.0000 C   0  0  0  0  0  0           0  0  0
   11.3137   -6.4101    0.0000 C   0  0  0  0  0  0           0  0  0
   11.3175   -7.2351    0.0000 C   0  0  0  0  0  0           0  0  0
   10.6542   -7.7241    0.0000 C   0  0  0  0  0  0           0  0  0
   10.9128   -8.5075    0.0000 C   0  0  0  0  0  0           0  0  0
   11.9890   -7.7180    0.0000 N   0  3  0  0  0  0           0  0  0
   11.7387   -8.4997    0.0000 C   0  0  0  0  0  0           0  0  0
   12.2875   -9.1040    0.0000 C   0  0  0  0  0  0           0  0  0
   12.7882   -7.5405    0.0000 B   0  5  0  0  0  0           0  0  0
   13.3399   -8.1505    0.0000 N   0  0  3  0  0  0           0  0  0
   13.0935   -8.9311    0.0000 C   0  0  0  0  0  0           0  0  0
   13.7597   -9.4067    0.0000 C   0  0  0  0  0  0           0  0  0
   14.4179   -8.9200    0.0000 C   0  0  0  0  0  0           0  0  0
   14.1583   -8.1437    0.0000 C   0  0  0  0  0  0           0  0  0
   12.5708   -6.7375    0.0000 F   0  0  0  0  0  0           0  0  0
   13.5833   -7.3208    0.0000 F   0  0  0  0  0  0           0  0  0
   14.6376   -7.4722    0.0000 C   0  0  0  0  0  0           0  0  0
   15.4624   -7.4637    0.0000 C   0  0  0  0  0  0           0  0  0
   15.7107   -6.6770    0.0000 C   0  0  0  0  0  0           0  0  0
   15.0392   -6.1977    0.0000 C   0  0  0  0  0  0           0  0  0
   14.3759   -6.6883    0.0000 S   0  0  0  0  0  0           0  0  0
    4.1583   -3.9570    0.0000 N   0  0  0  0  0  0           0  0  0
    4.8704   -3.5465    0.0000 C   0  0  0  0  0  0           0  0  0
    5.5862   -3.9567    0.0000 O   0  0  0  0  0  0           0  0  0
    4.8677   -2.7215    0.0000 C   0  0  0  0  0  0           0  0  0
    5.5809   -2.3067    0.0000 C   0  0  0  0  0  0           0  0  0
    6.2967   -2.7169    0.0000 C   0  0  0  0  0  0           0  0  0
    7.0098   -2.3021    0.0000 C   0  0  0  0  0  0           0  0  0
    7.7256   -2.7123    0.0000 C   0  0  0  0  0  0           0  0  0
    4.9489   -8.4879    0.0000 N   0  0  0  0  0  0           0  0  0
    4.9375   -7.6609    0.0000 C   0  0  0  0  0  0           0  0  0
    4.2109   -7.2583    0.0000 N   0  0  0  0  0  0           0  0  0
    3.5049   -7.6834    0.0000 C   0  0  0  0  0  0           0  0  0
    4.2399   -8.9106    0.0000 C   0  0  0  0  0  0           0  0  0
    3.5186   -8.5116    0.0000 C   0  0  0  0  0  0           0  0  0
    2.9161   -9.0743    0.0000 N   0  0  0  0  0  0           0  0  0
    3.2652   -9.8211    0.0000 C   0  0  0  0  0  0           0  0  0
    4.0832   -9.7200    0.0000 N   0  0  3  0  0  0           0  0  0
    4.4989  -10.4326    0.0000 C   0  0  2  0  0  0           0  0  0
    4.0328  -11.1130    0.0000 O   0  0  0  0  0  0           0  0  0
    4.5323  -11.7695    0.0000 C   0  0  1  0  0  0           0  0  0
    5.3111  -11.4971    0.0000 C   0  0  2  0  0  0           0  0  0
    5.2926  -10.6726    0.0000 C   0  0  1  0  0  0           0  0  0
    4.2949  -12.5596    0.0000 C   0  0  0  0  0  0           0  0  0
    4.8604  -13.1602    0.0000 O   0  0  0  0  0  0           0  0  0
    5.9891  -11.9671    0.0000 O   0  0  0  0  0  0           0  0  0
    5.9495  -10.1735    0.0000 O   0  0  0  0  0  0           0  0  0
    2.7833   -7.2834    0.0000 N   0  0  0  0  0  0           0  0  0
    2.7690   -6.4585    0.0000 C   0  0  0  0  0  0           0  0  0
    3.4762   -6.0336    0.0000 C   0  0  0  0  0  0           0  0  0
    3.4618   -5.2088    0.0000 C   0  0  0  0  0  0           0  0  0
    4.1690   -4.7839    0.0000 C   0  0  0  0  0  0           0  0  0
  2  4  1  0     0  0
  7  8  1  0     0  0
 29 30  1  0     0  0
 30 31  2  0     0  0
 31 32  1  0     0  0
 32 28  1  0     0  0
 15 16  2  0     0  0
 16 18  1  0     0  0
 33 34  1  0     0  0
 17 14  2  0     0  0
 34 35  2  0     0  0
 17 18  1  0     0  0
 34 36  1  0     0  0
 36 37  1  0     0  0
  8  9  2  0     0  0
 37 38  1  0     0  0
  4  5  1  0     0  0
 38 39  1  0     0  0
  9 10  1  0     0  0
 39 40  1  0     0  0
 40  1  1  0     0  0
 17 20  1  0     0  0
 45 41  1  0     0  0
 18 19  2  0     0  0
 41 42  2  0     0  0
 19 22  1  0     0  0
 42 43  1  0     0  0
 21 20  1  0     0  0
 43 44  2  0     0  0
 44 46  1  0     0  0
 45 46  2  0     0  0
 21 22  1  0     0  0
  2  3  2  0     0  0
 10 11  2  0     0  0
 11  6  1  0     0  0
  5  6  1  0     0  0
 46 47  1  0     0  0
 47 48  2  0     0  0
 48 49  1  0     0  0
 49 45  1  0     0  0
  9 12  1  0     0  0
 50 49  1  1     0  0
 50 51  1  0     0  0
 22 23  2  0     0  0
 23 24  1  0     0  0
 24 25  2  0     0  0
 25 21  1  0     0  0
 51 52  1  0     0  0
 52 53  1  0     0  0
 53 54  1  0     0  0
 54 50  1  0     0  0
  1  2  1  0     0  0
 52 55  1  1     0  0
 20 26  1  0     0  0
 55 56  1  0     0  0
 12 13  2  0     0  0
 53 57  1  6     0  0
 20 27  1  0     0  0
 54 58  1  6     0  0
  6  7  2  0     0  0
 44 59  1  0     0  0
 25 28  1  0     0  0
 59 60  1  0     0  0
 28 29  2  0     0  0
 60 61  1  0     0  0
 13 14  1  0     0  0
 61 62  1  0     0  0
 14 15  1  0     0  0
 62 63  1  0     0  0
 63 33  1  0     0  0
M  CHG  2  17   1  20  -1
M  END