
  SciTegic01201417202D

 91 96  0  0  1  0            999 V2000
   12.0825   -3.2554    0.0000 N   0  0
    2.2486   -2.5662    0.0000 N   0  0
   11.4416   -3.7749    0.0000 C   0  0
   10.9880   -5.1734    0.0000 N   0  0
    1.4337   -2.4376    0.0000 C   0  0  2  0  0  0
    2.8317   -1.9826    0.0000 C   0  0
   10.1731   -5.0447    0.0000 C   0  0
   12.0390   -2.4316    0.0000 C   0  0  2  0  0  0
    1.0588   -1.7027    0.0000 C   0  0
   11.5711   -4.5897    0.0000 C   0  0  1  0  0  0
    4.2118   -1.6121    0.0000 N   0  0
    4.9039   -2.0611    0.0000 C   0  0
    5.6388   -1.6862    0.0000 C   0  0  1  0  0  0
    7.0658   -1.7603    0.0000 C   0  0
    6.3309   -2.1352    0.0000 N   0  0
    2.3780   -3.3810    0.0000 C   0  0
    1.0595   -3.1728    0.0000 C   0  0
    9.4314   -7.0976    0.0000 C   0  0
    0.2349   -1.6599    0.0000 N   0  0
    9.9502   -6.4562    0.0000 N   0  0
   11.3468   -1.9826    0.0000 C   0  0
    3.6287   -2.1957    0.0000 C   0  0
    7.7579   -2.2093    0.0000 C   0  0  1  0  0  0
    9.6542   -5.6861    0.0000 C   0  0  1  0  0  0
    1.6431   -3.7559    0.0000 C   0  0
   -3.3615    0.6731    0.0000 C   0  0
    7.8747   -9.0217    0.0000 C   0  0
    7.5055   -6.0702    0.0000 C   0  0
    8.4928   -1.8344    0.0000 N   0  0
    0.3090   -0.2329    0.0000 C   0  0
   12.8795   -3.4686    0.0000 C   0  0
   12.8090   -2.1356    0.0000 C   0  0
    6.9802   -3.4081    0.0000 C   0  0
    7.7151   -3.0332    0.0000 C   0  0
    9.1849   -2.2834    0.0000 C   0  0
   10.6119   -2.3575    0.0000 N   0  0
    6.8516   -4.2230    0.0000 S   0  0
   -0.1400   -0.9250    0.0000 C   0  0  2  0  0  0
   10.6713   -3.4797    0.0000 O   0  0
    2.6178   -1.1858    0.0000 O   0  0
    3.9978   -0.8153    0.0000 C   0  0
   -3.8104   -0.0190    0.0000 N   0  0
    7.0598   -8.8931    0.0000 N   0  0
    8.3204   -6.1988    0.0000 N   0  0
    9.8771   -4.2746    0.0000 O   0  0
    1.5078   -1.0106    0.0000 O   0  0
    4.8611   -2.8850    0.0000 O   0  0
    7.1086   -0.9364    0.0000 O   0  0
    8.6165   -6.9689    0.0000 O   0  0
   13.3285   -2.7765    0.0000 C   0  0  1  0  0  0
    6.0368   -4.3524    0.0000 C   0  0
   11.3896   -1.1587    0.0000 O   0  0
    6.2450   -3.0339    0.0000 C   0  0
   -0.0659    0.5020    0.0000 O   0  0
    5.6619   -3.6175    0.0000 C   0  0
    9.1421   -3.1073    0.0000 O   0  0
    9.7274   -7.8676    0.0000 C   0  0  1  0  0  0
    7.2095   -5.3001    0.0000 N   0  0
   -2.5376    0.6304    0.0000 N   0  0
    8.1707   -9.7918    0.0000 N   0  0
    9.9198   -1.9085    0.0000 C   0  0
    8.3936   -8.3803    0.0000 N   0  0
    6.9867   -6.7116    0.0000 N   0  0
   -3.7363    1.4080    0.0000 N   0  0
   11.3629   -5.9083    0.0000 C   0  0
    1.1329   -0.2757    0.0000 O   0  0
    5.6816   -0.8623    0.0000 C   0  0
   10.5423   -7.9963    0.0000 N   0  0
    4.5809   -0.2317    0.0000 C   0  0
   12.3064   -4.9639    0.0000 C   0  0
   14.1524   -2.7329    0.0000 O   0  0
    3.0702   -3.8300    0.0000 C   0  0
    6.4165   -0.4874    0.0000 O   0  0
   12.1777   -5.7788    0.0000 C   0  0
    1.6004   -4.5798    0.0000 C   0  0
    8.8393   -5.5574    0.0000 C   0  0
   -0.9639   -0.8822    0.0000 C   0  0
    8.9856   -9.9205    0.0000 C   0  0
   -2.1627   -0.1045    0.0000 C   0  0
    7.7284   -4.6587    0.0000 C   0  0
    9.2085   -8.5090    0.0000 C   0  0
    5.3779   -0.4448    0.0000 C   0  0
    4.3670    0.5651    0.0000 C   0  0
    8.5433   -4.7874    0.0000 C   0  0
   -1.3388   -0.1473    0.0000 C   0  0
    9.5045   -9.2791    0.0000 C   0  0
    3.0274   -4.6539    0.0000 C   0  0
    2.2925   -5.0288    0.0000 C   0  0
    4.9501    1.1488    0.0000 C   0  0
    5.9610    0.1388    0.0000 C   0  0
    5.7471    0.9356    0.0000 C   0  0
  2  6  1  0
  3  1  1  0
  4 10  1  0
  5  2  1  0
  6 22  1  0
  7  4  1  0
  8  1  1  0
  5  9  1  1
 10  3  1  6
 11 12  1  0
 12 13  1  0
 13 15  1  0
 14 23  1  0
 15 14  1  0
 16  2  1  0
 17  5  1  0
 18 20  1  0
 19  9  1  0
 20 24  1  0
  8 21  1  6
 22 11  1  0
 23 29  1  0
 24  7  1  0
 25 16  1  0
 26 59  2  0
 27 60  2  0
 28 58  2  0
 29 35  1  0
 30 38  1  0
 31  1  1  0
 32  8  1  0
 33 34  1  0
 23 34  1  1
 35 61  1  0
 36 21  1  0
 37 33  1  0
 38 19  1  0
 39  3  2  0
 40  6  2  0
 41 11  1  0
 42 26  1  0
 43 27  1  0
 44 28  1  0
 45  7  2  0
 46  9  2  0
 47 12  2  0
 48 14  2  0
 49 18  2  0
 50 31  1  0
 51 37  1  0
 52 21  2  0
 53 33  2  0
 54 30  2  0
 55 53  1  0
 56 35  2  0
 57 18  1  0
 58 80  1  0
 59 79  1  0
 60 78  1  0
 61 36  1  0
 62 27  1  0
 63 28  1  0
 64 26  1  0
 65  4  1  0
 66 30  1  0
 13 67  1  6
 68 57  1  0
 69 41  1  0
 70 10  1  0
 50 71  1  1
 72 16  1  0
 73 67  1  0
 74 70  1  0
 75 25  1  0
 24 76  1  1
 38 77  1  1
 78 86  1  0
 79 85  1  0
 80 84  1  0
 57 81  1  1
 82 69  1  0
 83 69  2  0
 84 76  1  0
 85 77  1  0
 86 81  1  0
 87 72  1  0
 88 87  1  0
 89 83  1  0
 90 82  2  0
 91 89  2  0
 32 50  1  0
 65 74  1  0
 55 51  2  0
 91 90  1  0
 25 17  1  0
 88 75  1  0
M  END