
  SciTegic02211115552D

 28 31  0  0  0  0            999 V2000
    2.7061  -13.3070    0.0000 C   0  0
    3.1191  -14.0243    0.0000 C   0  0
    3.9449  -14.0244    0.0000 C   0  0
    4.3589  -13.3079    0.0000 C   0  0
    3.9409  -12.5897    0.0000 N   0  0
    3.1163  -12.5931    0.0000 C   0  0
    2.7014  -11.8795    0.0000 C   0  0
    3.1119  -11.1634    0.0000 C   0  0
    2.6960  -10.4509    0.0000 C   0  0
    2.0286   -9.2924    0.0000 N   0  0
    1.9386  -10.1129    0.0000 N   0  0
    2.8369   -9.1246    0.0000 C   0  0
    3.2432   -9.8403    0.0000 C   0  0
    4.0643   -9.8452    0.0000 C   0  0
    4.4800   -9.1352    0.0000 C   0  0
    4.0687   -8.4188    0.0000 C   0  0
    3.2489   -8.4174    0.0000 C   0  0
    4.4828   -7.7048    0.0000 S   0  0
    4.0716   -6.9891    0.0000 C   0  0
    4.4901   -6.2787    0.0000 C   0  0
    4.0795   -5.5635    0.0000 C   0  0
    3.2532   -5.5613    0.0000 C   0  0
    2.8391   -6.2804    0.0000 C   0  0
    3.2520   -6.9927    0.0000 C   0  0
    5.3155   -6.2833    0.0000 C   0  0
    5.7242   -7.0005    0.0000 O   0  0
    5.7322   -5.5707    0.0000 N   0  0
    6.5576   -5.5754    0.0000 C   0  0
  1  2  2  0
 13 14  1  0
  6  7  1  0
 14 15  2  0
  3  4  2  0
 15 16  1  0
  7  8  2  0
 16 17  2  0
 17 12  1  0
 16 18  1  0
  8  9  1  0
 18 19  1  0
  9 13  1  0
 19 20  2  0
  4  5  1  0
 20 21  1  0
  2  3  1  0
 21 22  2  0
 12 10  1  0
 22 23  1  0
 10 11  1  0
 23 24  2  0
 24 19  1  0
 11  9  2  0
 20 25  1  0
  5  6  2  0
 25 26  2  0
  6  1  1  0
 25 27  1  0
 12 13  2  0
 27 28  1  0
M  END