
  SciTegic12091219362D

 31 34  0  0  0  0            999 V2000
    4.8500   -3.1792    0.0000 C   0  0
    4.8500   -4.0042    0.0000 C   0  0
    6.9917   -6.8917    0.0000 S   0  0
    5.6375   -4.2542    0.0000 N   0  0
    6.1167   -3.5917    0.0000 N   0  0
    3.4250   -5.6542    0.0000 N   0  0
    5.6375   -2.9292    0.0000 C   0  0
    4.1375   -4.4167    0.0000 C   0  0
    3.4167   -4.0042    0.0000 C   0  0
    2.7042   -5.2417    0.0000 C   0  0
    3.4250   -6.4792    0.0000 C   0  0
    6.2792   -6.4792    0.0000 C   0  0
    4.1375   -2.7667    0.0000 C   0  0
    2.7042   -4.4167    0.0000 N   0  0
    3.4167   -3.1792    0.0000 C   0  0
    5.5667   -6.8917    0.0000 C   0  0
    4.1375   -6.8917    0.0000 N   0  0
    2.7042   -6.8917    0.0000 N   0  0
    7.7042   -7.3042    0.0000 O   0  0
    6.2792   -7.3042    0.0000 O   0  0
    1.9917   -5.6542    0.0000 C   0  0
    4.8542   -6.4792    0.0000 C   0  0
    7.7042   -6.4792    0.0000 N   0  0
    6.2792   -5.6542    0.0000 C   0  0
    5.5667   -5.2417    0.0000 C   0  0
    1.9917   -6.4792    0.0000 C   0  0
    6.9417   -3.5917    0.0000 C   0  0
    4.8542   -5.6542    0.0000 C   0  0
    5.8917   -2.1417    0.0000 C   0  0
    1.9917   -4.0042    0.0000 C   0  0
    6.9917   -5.2417    0.0000 C   0  0
  2  1  1  0
  3 12  1  0
  4  2  2  0
  5  7  1  0
  6 10  2  0
  7  1  2  0
  8  2  1  0
  9 15  1  0
 10 14  1  0
 11  6  1  0
 12 16  1  0
 13  1  1  0
 14  9  1  0
 15 13  2  0
 16 22  2  0
 17 11  1  0
 18 26  1  0
 19  3  2  0
 20  3  2  0
 21 10  1  0
 22 17  1  0
 23  3  1  0
 24 25  1  0
 25 28  2  0
 26 21  2  0
 27  5  1  0
 28 22  1  0
 29  7  1  0
 30 14  1  0
 31 24  1  0
  5  4  1  0
  8  9  2  0
 11 18  2  0
 24 12  2  0
M  END