
  Mrv0541 04051115152D          

  8  8  0  0  0  0            999 V2000
   -0.5359    0.1031    0.0000 C   0  0  0  0  0  0  0  0  0  0  0  0
    0.1786    0.5156    0.0000 C   0  0  0  0  0  0  0  0  0  0  0  0
    0.8931    0.1031    0.0000 C   0  0  0  0  0  0  0  0  0  0  0  0
    0.8931   -0.7219    0.0000 C   0  0  0  0  0  0  0  0  0  0  0  0
    0.1786   -1.1344    0.0000 C   0  0  0  0  0  0  0  0  0  0  0  0
   -0.5359   -0.7219    0.0000 C   0  0  0  0  0  0  0  0  0  0  0  0
   -1.2503    0.5156    0.0000 C   0  0  0  0  0  0  0  0  0  0  0  0
    0.1786    1.3406    0.0000 C   0  0  0  0  0  0  0  0  0  0  0  0
  1  2  2  0  0  0  0
  1  6  1  0  0  0  0
  1  7  1  0  0  0  0
  2  3  1  0  0  0  0
  2  8  1  0  0  0  0
  3  4  2  0  0  0  0
  4  5  1  0  0  0  0
  5  6  2  0  0  0  0
M  END