
  SciTegic12201609252D

 24 25  0  0  0  0            999 V2000
    1.0388    3.6015    0.0000 O   0  0
    0.0000    3.0008    0.0000 S   0  0
   -1.0394    3.6005    0.0000 O   0  0
    1.2990   -0.7500    0.0000 C   0  0
    1.2990    0.7500    0.0000 C   0  0
    0.0000    1.5000    0.0000 C   0  0
   -1.2990    0.7500    0.0000 C   0  0
   -1.2990   -0.7500    0.0000 C   0  0
    0.0000   -1.5000    0.0000 C   0  0
    0.0000   -2.7000    0.0000 F   0  0
    2.3383   -1.3500    0.0000 F   0  0
    2.3383    1.3500    0.0000 F   0  0
   -2.3383   -1.3500    0.0000 F   0  0
   -0.0006    4.2008    0.0000 N   0  0
   -2.6003    1.4977    0.0000 N   0  0
   -3.8990    0.7455    0.0000 C   0  0
   -5.2003    1.4932    0.0000 C   0  0
   -6.4994    0.7432    0.0000 C   0  0
   -7.7985    1.4932    0.0000 C   0  0
   -7.7985    2.9932    0.0000 C   0  0
   -6.4995    3.7432    0.0000 C   0  0
   -5.2004    2.9933    0.0000 C   0  0
   -9.0967    3.7462    0.0000 O   0  0
   -9.0951    4.9462    0.0000 C   0  0
  2  1  2  0
  3  2  2  0
  4  5  2  0
  5  6  1  0
  6  7  2  0
  7  8  1  0
  8  9  2  0
  9  4  1  0
  9 10  1  0
  4 11  1  0
  5 12  1  0
  8 13  1  0
  6  2  1  0
  2 14  1  0
  7 15  1  0
 15 16  1  0
 16 17  1  0
 17 18  2  0
 18 19  1  0
 19 20  2  0
 20 21  1  0
 21 22  2  0
 22 17  1  0
 20 23  1  0
 23 24  1  0
M  END