
  SciTegic01201417202D

 90 95  0  0  1  0            999 V2000
   13.3898   -6.0362    0.0000 N   0  0
    8.2651    0.8865    0.0000 N   0  0
   13.4761   -6.8567    0.0000 C   0  0  1  0  0  0
    8.8171    1.4996    0.0000 C   0  0
    9.0471    2.9517    0.0000 N   0  0
   12.8086   -7.3416    0.0000 C   0  0
   12.6362   -5.7007    0.0000 C   0  0
    9.8721    2.9517    0.0000 C   0  0
    8.4366    0.0795    0.0000 C   0  0  1  0  0  0
    8.5622    2.2842    0.0000 C   0  0  2  0  0  0
   12.8949   -8.1621    0.0000 N   0  0
   12.5499   -4.8802    0.0000 C   0  0  1  0  0  0
   14.0573   -5.5513    0.0000 C   0  0
   11.7100   -3.7241    0.0000 C   0  0
   11.7962   -4.5446    0.0000 N   0  0
   14.2297   -7.1922    0.0000 C   0  0
    9.1903   -0.2560    0.0000 C   0  0
   10.9563   -3.3886    0.0000 C   0  0  1  0  0  0
   12.3137   -9.4675    0.0000 C   0  0
    9.8721    7.2385    0.0000 C   0  0
   15.2346    6.5240    0.0000 C   0  0
    9.9026  -13.8686    0.0000 C   0  0
   10.2846    3.6661    0.0000 C   0  0  1  0  0  0
   10.8701   -2.5681    0.0000 N   0  0
   11.6462   -9.9524    0.0000 N   0  0
   11.1096    3.6661    0.0000 N   0  0
   12.4861  -11.1085    0.0000 C   0  0
    7.4446    0.9727    0.0000 C   0  0
   14.8109   -5.8868    0.0000 C   0  0
    7.7221   -0.3330    0.0000 C   0  0
   14.8972   -6.7073    0.0000 C   0  0
   10.3751   -4.6940    0.0000 C   0  0
   10.2889   -3.8735    0.0000 C   0  0
   12.2274   -8.6470    0.0000 C   0  0
   10.1164   -2.2325    0.0000 C   0  0
    9.2765   -1.0765    0.0000 N   0  0
    9.7620   -5.2460    0.0000 S   0  0
   11.5221    4.3806    0.0000 C   0  0
    9.6241    1.3281    0.0000 O   0  0
   11.7325  -10.7729    0.0000 C   0  0  2  0  0  0
   12.0549   -7.0061    0.0000 O   0  0
   16.0596    6.5240    0.0000 N   0  0
    9.0471    7.2385    0.0000 N   0  0
    9.9888  -14.6891    0.0000 N   0  0
   11.9687   -6.1856    0.0000 O   0  0
   10.2846    2.2372    0.0000 O   0  0
   12.3774   -3.2392    0.0000 O   0  0
    7.1090    0.2191    0.0000 C   0  0  2  0  0  0
   10.0976   -5.9997    0.0000 C   0  0
    9.8577    0.2289    0.0000 O   0  0
   13.6485   -8.4977    0.0000 C   0  0
   11.0896   -5.1065    0.0000 C   0  0
   13.0673   -9.8031    0.0000 O   0  0
   12.5724  -11.9289    0.0000 O   0  0
   10.9181   -5.9135    0.0000 C   0  0
    9.4490   -2.7175    0.0000 O   0  0
   11.1096    5.0951    0.0000 O   0  0
   10.5700  -13.3837    0.0000 N   0  0
   10.2846    6.5240    0.0000 N   0  0
   14.8221    5.8096    0.0000 N   0  0
   10.0302   -1.4121    0.0000 C   0  0
   14.8221    7.2385    0.0000 N   0  0
   10.2846    7.9530    0.0000 N   0  0
    9.1489  -13.5331    0.0000 N   0  0
    8.5622    3.6191    0.0000 C   0  0
   13.1536  -10.6235    0.0000 O   0  0
   13.2174   -4.3952    0.0000 C   0  0
    7.7775    2.5392    0.0000 C   0  0
    6.3021    0.0475    0.0000 O   0  0
   13.9710   -4.7308    0.0000 O   0  0
    7.7775    3.3642    0.0000 C   0  0
    9.8721    4.3806    0.0000 C   0  0
   15.4784   -5.4019    0.0000 C   0  0
   15.6509   -7.0429    0.0000 C   0  0
   12.3471    4.3806    0.0000 C   0  0
   11.0650  -11.2578    0.0000 C   0  0
   13.9971    5.8096    0.0000 C   0  0
   10.4838  -12.5632    0.0000 C   0  0
    9.8721    5.8096    0.0000 C   0  0
   13.7348   -9.3181    0.0000 C   0  0
   14.3160   -8.0127    0.0000 C   0  0
   10.2846    5.0951    0.0000 C   0  0
   11.1513  -12.0783    0.0000 C   0  0
   12.7596    5.0951    0.0000 C   0  0
   13.5846    5.0951    0.0000 C   0  0
   16.2321   -5.7375    0.0000 C   0  0
   16.3183   -6.5580    0.0000 C   0  0
   15.0696   -8.3483    0.0000 C   0  0
   14.4884   -9.6537    0.0000 C   0  0
   15.1559   -9.1688    0.0000 C   0  0
  2  9  1  0
  3  1  1  0
  4  2  1  0
  5 10  1  0
  3  6  1  6
  7  1  1  0
  8  5  1  0
  9 17  1  1
 10  4  1  1
 11  6  1  0
 12  7  1  0
 13  1  1  0
 14 15  1  0
 15 12  1  0
 16  3  1  0
 17 36  1  0
 18 14  1  0
 19 34  1  0
 20 59  1  0
 21 60  1  0
 22 58  1  0
 23  8  1  0
 24 18  1  0
 25 19  1  0
 26 23  1  0
 27 40  1  0
 28  2  1  0
 29 13  1  0
 30  9  1  0
 31 29  1  0
 32 33  1  0
 18 33  1  6
 34 11  1  0
 35 24  1  0
 36 61  1  0
 37 32  1  0
 38 26  1  0
 39  4  2  0
 40 25  1  0
 41  6  2  0
 42 21  2  0
 43 20  2  0
 44 22  2  0
 45  7  2  0
 46  8  2  0
 47 14  2  0
 48 30  1  0
 49 37  1  0
 50 17  2  0
 51 11  1  0
 52 32  2  0
 53 19  2  0
 54 27  2  0
 55 52  1  0
 56 35  2  0
 57 38  2  0
 58 78  1  0
 59 79  1  0
 60 77  1  0
 61 35  1  0
 62 21  1  0
 63 20  1  0
 64 22  1  0
 65  5  1  0
 66 27  1  0
 12 67  1  1
 68 10  1  0
 48 69  1  6
 70 67  1  0
 71 68  1  0
 23 72  1  6
 73 29  2  0
 74 31  2  0
 75 38  1  0
 40 76  1  6
 77 85  1  0
 78 83  1  0
 79 82  1  0
 80 51  1  0
 81 51  1  0
 82 72  1  0
 83 76  1  0
 75 84  1  0
 85 84  1  0
 86 73  1  0
 87 86  2  0
 88 81  1  0
 89 80  1  0
 90 88  1  0
 31 16  1  0
 87 74  1  0
 90 89  1  0
 55 49  2  0
 48 28  1  0
 65 71  1  0
M  END