
  SciTegic12091219272D

 20 22  0  0  0  0            999 V2000
    0.5417    1.6958    0.0000 C   0  0
    3.0417    2.9458    0.0000 N   0  0
    1.2792    2.4583    0.0000 C   0  0
   -0.4708    1.9458    0.0000 C   0  0
    0.8375    0.6833    0.0000 C   0  0
    2.3000    2.1958    0.0000 C   0  0
    4.0625    2.6750    0.0000 C   0  0
    0.1167   -0.0625    0.0000 C   0  0
   -0.7625    2.9458    0.0000 C   0  0
   -1.1958    1.1750    0.0000 C   0  0
    1.8500    0.4375    0.0000 C   0  0
    2.5792    1.1833    0.0000 C   0  0
    4.3417    1.6625    0.0000 C   0  0
   -1.7833    3.1958    0.0000 C   0  0
   -2.2125    1.4208    0.0000 C   0  0
    2.1417   -0.5750    0.0000 C   0  0
    0.4042   -1.0542    0.0000 C   0  0
    3.6000    0.9250    0.0000 C   0  0
    1.4375   -1.3125    0.0000 C   0  0
   -2.5208    2.4208    0.0000 C   0  0
  2  6  1  0
  3  1  1  0
  4  1  1  0
  5  1  1  0
  6  3  1  0
  7  2  1  0
  8  5  1  0
  9  4  1  0
 10  4  1  0
 11  5  1  0
 12  6  1  0
 13  7  1  0
 14  9  1  0
 15 10  1  0
 16 11  1  0
 17  8  1  0
 18 12  1  0
 19 16  1  0
 20 15  1  0
 17 19  1  0
 14 20  1  0
 18 13  1  0
M  END