
  SciTegic10301317112D

 50 54  0  0  0  0            999 V2000
    1.3641   -4.0166    0.0000 N   0  0
    0.2364   -2.1477    0.0000 N   0  0
    1.1925   -3.2096    0.0000 C   0  0
    0.4079   -2.9547    0.0000 C   0  0  2  0  0  0
    2.1177   -4.3522    0.0000 C   0  0  2  0  0  0
    0.8495   -1.5957    0.0000 C   0  0
    2.8322   -3.9397    0.0000 C   0  0
   -0.5482   -1.8928    0.0000 C   0  0
    0.8120   -4.6297    0.0000 C   0  0
    0.6780   -0.7887    0.0000 C   0  0  1  0  0  0
    2.0315   -5.1726    0.0000 C   0  0
   -0.2052   -3.5067    0.0000 C   0  0
    3.5467   -4.3522    0.0000 N   0  0
    1.2245   -5.3442    0.0000 C   0  0
    7.1190   -5.5897    0.0000 C   0  0
   -0.1067   -0.5338    0.0000 N   0  0
    4.2611   -3.1147    0.0000 C   0  0
   -1.1613   -2.4448    0.0000 C   0  0
   -0.9898   -3.2518    0.0000 C   0  0
   -0.2782    0.2732    0.0000 C   0  0
    1.8056   -2.6576    0.0000 O   0  0
    4.2611   -3.9397    0.0000 C   0  0  2  0  0  0
    7.8335   -5.1772    0.0000 N   0  0
    1.6341   -1.8506    0.0000 O   0  0
    2.8322   -3.1147    0.0000 O   0  0
    1.2910   -0.2367    0.0000 C   0  0
    4.9756   -2.7022    0.0000 O   0  0
    0.3349    0.8252    0.0000 O   0  0
    6.4046   -5.1772    0.0000 N   0  0
    7.1190   -6.4147    0.0000 N   0  0
    3.5467   -2.7022    0.0000 O   0  0
    2.0757   -0.4916    0.0000 C   0  0
   -1.6759   -0.0239    0.0000 N   0  0
   -1.0628    0.5281    0.0000 C   0  0
   -0.0130   -4.6297    0.0000 C   0  0
    0.8120   -6.0586    0.0000 C   0  0
   -1.9460   -2.1899    0.0000 C   0  0
   -1.6029   -3.8038    0.0000 C   0  0
    4.9756   -4.3522    0.0000 C   0  0
    6.4046   -4.3522    0.0000 C   0  0
    2.2472   -1.2986    0.0000 C   0  0
    2.6888    0.0604    0.0000 C   0  0
    5.6901   -3.9397    0.0000 C   0  0
   -0.4255   -5.3442    0.0000 C   0  0
   -0.0130   -6.0586    0.0000 C   0  0
   -2.3875   -3.5489    0.0000 C   0  0
   -2.5590   -2.7419    0.0000 C   0  0
    3.4734   -0.1945    0.0000 C   0  0
    3.0318   -1.5535    0.0000 C   0  0
    3.6449   -1.0015    0.0000 C   0  0
  2  4  1  0
  3  1  1  0
  4  3  1  6
  5  1  1  0
  6  2  1  0
  5  7  1  6
  8  2  1  0
  9  1  1  0
 10  6  1  0
 11  5  1  0
 12  4  1  0
 13  7  1  0
 14  9  1  0
 15 29  2  0
 16 10  1  0
 22 17  1  6
 18 19  2  0
 19 12  1  0
 20 16  1  0
 21  3  2  0
 22 13  1  0
 23 15  1  0
 24  6  2  0
 25  7  2  0
 10 26  1  1
 27 17  2  0
 28 20  2  0
 29 40  1  0
 30 15  1  0
 31 17  1  0
 32 26  1  0
 33 34  1  0
 34 20  1  0
 35  9  1  0
 36 14  1  0
 37 18  1  0
 38 19  1  0
 39 22  1  0
 40 43  1  0
 41 32  2  0
 42 32  1  0
 43 39  1  0
 44 35  1  0
 45 44  1  0
 46 38  2  0
 47 46  1  0
 48 42  2  0
 49 41  1  0
 50 48  1  0
 11 14  1  0
 36 45  1  0
  8 18  1  0
 37 47  2  0
 49 50  2  0
M  END