
  CDK    9/16/09,10:2

 40 43  0  0  0  0  0  0  0  0999 V2000
   11.7731  -18.5490    0.0000 C   0  0  0  0  0  0  0  0  0  0  0  0
   11.7719  -19.3765    0.0000 C   0  0  0  0  0  0  0  0  0  0  0  0
   12.4848  -19.7895    0.0000 C   0  0  0  0  0  0  0  0  0  0  0  0
   12.4828  -18.1361    0.0000 C   0  0  0  0  0  0  0  0  0  0  0  0
   13.2010  -18.5449    0.0000 C   0  0  0  0  0  0  0  0  0  0  0  0
   13.2021  -19.3723    0.0000 C   0  0  0  0  0  0  0  0  0  0  0  0
   13.9180  -19.7833    0.0000 N   0  0  0  0  0  0  0  0  0  0  0  0
   14.6334  -19.3680    0.0000 C   0  0  0  0  0  0  0  0  0  0  0  0
   14.6283  -18.5375    0.0000 C   0  0  0  0  0  0  0  0  0  0  0  0
   13.9119  -18.1303    0.0000 C   0  0  0  0  0  0  0  0  0  0  0  0
   13.9071  -17.3053    0.0000 N   0  0  0  0  0  0  0  0  0  0  0  0
   14.6193  -16.8887    0.0000 C   0  0  0  0  0  0  0  0  0  0  0  0
   15.3315  -17.3008    0.0000 C   0  0  0  0  0  0  0  0  0  0  0  0
   16.0433  -16.8850    0.0000 C   0  0  0  0  0  0  0  0  0  0  0  0
   16.0391  -16.0591    0.0000 C   0  0  0  0  0  0  0  0  0  0  0  0
   15.3172  -15.6509    0.0000 C   0  0  0  0  0  0  0  0  0  0  0  0
   14.6085  -16.0690    0.0000 C   0  0  0  0  0  0  0  0  0  0  0  0
   16.7598  -17.2939    0.0000 Cl  0  0  0  0  0  0  0  0  0  0  0  0
   16.7506  -15.6416    0.0000 O   0  0  0  0  0  0  0  0  0  0  0  0
   17.4680  -16.0492    0.0000 C   0  0  0  0  0  0  0  0  0  0  0  0
   18.1796  -15.6316    0.0000 C   0  0  0  0  0  0  0  0  0  0  0  0
   18.8938  -16.0425    0.0000 C   0  0  0  0  0  0  0  0  0  0  0  0
   19.6049  -15.6257    0.0000 C   0  0  0  0  0  0  0  0  0  0  0  0
   19.5996  -14.7999    0.0000 C   0  0  0  0  0  0  0  0  0  0  0  0
   18.8772  -14.3926    0.0000 C   0  0  0  0  0  0  0  0  0  0  0  0
   18.1690  -14.8117    0.0000 N   0  0  0  0  0  0  0  0  0  0  0  0
   15.3354  -18.1205    0.0000 C   0  0  0  0  0  0  0  0  0  0  0  0
   16.0472  -17.7035    0.0000 N   0  0  0  0  0  0  0  0  0  0  0  0
   11.0583  -18.1370    0.0000 N   0  0  0  0  0  0  0  0  0  0  0  0
   11.0568  -19.7880    0.0000 O   0  0  0  0  0  0  0  0  0  0  0  0
   11.0556  -20.6130    0.0000 C   0  0  0  0  0  0  0  0  0  0  0  0
   10.3406  -21.0246    0.0000 C   0  0  0  0  0  0  0  0  0  0  0  0
   10.3442  -18.5502    0.0000 C   0  0  0  0  0  0  0  0  0  0  0  0
    9.6294  -18.1382    0.0000 C   0  0  0  0  0  0  0  0  0  0  0  0
   10.3449  -19.3752    0.0000 O   0  0  0  0  0  0  0  0  0  0  0  0
    8.9153  -18.5513    0.0000 C   0  0  0  0  0  0  0  0  0  0  0  0
    8.2004  -18.1394    0.0000 C   0  0  0  0  0  0  0  0  0  0  0  0
    7.4862  -18.5525    0.0000 N   0  0  0  0  0  0  0  0  0  0  0  0
    6.7715  -18.1406    0.0000 C   0  0  0  0  0  0  0  0  0  0  0  0
    7.4870  -19.3775    0.0000 C   0  0  0  0  0  0  0  0  0  0  0  0
 15 19  1  0  0  0  0 
  4  1  1  0  0  0  0 
 19 20  1  0  0  0  0 
  9 10  2  0  0  0  0 
 20 21  1  0  0  0  0 
 10  5  1  0  0  0  0 
 21 22  2  0  0  0  0 
 22 23  1  0  0  0  0 
 10 11  1  0  0  0  0 
 23 24  2  0  0  0  0 
  2  3  1  0  0  0  0 
 24 25  1  0  0  0  0 
 11 12  1  0  0  0  0 
 25 26  2  0  0  0  0 
 26 21  1  0  0  0  0 
  5  6  1  0  0  0  0 
 12 13  2  0  0  0  0 
 27 28  3  0  0  0  0 
  9 27  1  0  0  0  0 
  3  6  2  0  0  0  0 
  1 29  1  0  0  0  0 
 13 14  1  0  0  0  0 
  2 30  1  0  0  0  0 
  6  7  1  0  0  0  0 
 30 31  1  0  0  0  0 
 14 15  2  0  0  0  0 
 31 32  1  0  0  0  0 
  1  2  2  0  0  0  0 
 29 33  1  0  0  0  0 
 15 16  1  0  0  0  0 
 33 34  1  0  0  0  0 
  7  8  2  0  0  0  0 
 33 35  2  0  0  0  0 
 16 17  2  0  0  0  0 
 34 36  2  0  0  0  0 
 17 12  1  0  0  0  0 
 36 37  1  0  0  0  0 
  5  4  2  0  0  0  0 
 37 38  1  0  0  0  0 
 14 18  1  0  0  0  0 
 38 39  1  0  0  0  0 
  8  9  1  0  0  0  0 
 38 40  1  0  0  0  0 
M  END