
          11280714482D 1   1.00000     0.00000     0

 27 29  0     0  0            999 V2000
    4.1125   -8.3667    0.0000 C   0  0  0  0  0  0           0  0  0
    4.1125   -7.5417    0.0000 C   0  0  0  0  0  0           0  0  0
    6.3125   -8.2667    0.0000 N   0  0  3  0  0  0           0  0  0
    4.8167   -7.1292    0.0000 N   0  0  0  0  0  0           0  0  0
    3.3917   -8.7792    0.0000 C   0  0  0  0  0  0           0  0  0
    4.8167   -8.7792    0.0000 C   0  0  0  0  0  0           0  0  0
    5.6417   -7.1292    0.0000 C   0  0  3  0  0  0           0  0  0
    3.3917   -9.6125    0.0000 C   0  0  0  0  0  0           0  0  0
    5.5625   -7.9417    0.0000 C   0  0  3  0  0  0           0  0  0
    4.8167   -9.6125    0.0000 C   0  0  0  0  0  0           0  0  0
    4.1125  -10.0167    0.0000 C   0  0  0  0  0  0           0  0  0
    6.4417   -6.9542    0.0000 C   0  0  0  0  0  0           0  0  0
    6.8542   -7.6542    0.0000 C   0  0  0  0  0  0           0  0  0
    6.4875   -9.0750    0.0000 C   0  0  0  0  0  0           0  0  0
    3.3917   -7.1292    0.0000 O   0  0  0  0  0  0           0  0  0
    4.1167  -10.8500    0.0000 N   0  0  0  0  0  0           0  0  0
    5.5375  -10.0167    0.0000 Cl  0  0  0  0  0  0           0  0  0
    2.6792   -8.3667    0.0000 O   0  0  0  0  0  0           0  0  0
    7.2667   -9.3250    0.0000 C   0  0  0  0  0  0           0  0  0
    4.8500   -8.3542    0.0000 C   0  0  0  0  0  0           0  0  0
    3.3667  -11.1875    0.0000 C   0  0  0  0  0  0           0  0  0
    2.6792   -7.5417    0.0000 C   0  0  0  0  0  0           0  0  0
    7.8792   -8.7667    0.0000 C   0  0  0  0  0  0           0  0  0
    7.4417  -10.1292    0.0000 C   0  0  0  0  0  0           0  0  0
    8.2292  -10.3792    0.0000 C   0  0  0  0  0  0           0  0  0
    8.6625   -9.0167    0.0000 C   0  0  0  0  0  0           0  0  0
    8.8417   -9.8250    0.0000 C   0  0  0  0  0  0           0  0  0
  2  1  1  0     0  0
  3  9  1  0     0  0
  4  2  1  0     0  0
  5  1  1  0     0  0
  6  1  2  0     0  0
  7  4  1  0     0  0
  8  5  2  0     0  0
  9  7  1  0     0  0
 10  6  1  0     0  0
 11 10  2  0     0  0
 12  7  1  0     0  0
 13 12  1  0     0  0
 14  3  1  0     0  0
 15  2  2  0     0  0
 16 11  1  0     0  0
 17 10  1  0     0  0
 18  5  1  0     0  0
 19 14  1  0     0  0
 20  9  1  0     0  0
 21 16  1  0     0  0
 22 18  1  0     0  0
 23 19  1  0     0  0
 24 19  2  0     0  0
 25 24  1  0     0  0
 26 23  2  0     0  0
 27 25  2  0     0  0
  8 11  1  0     0  0
  3 13  1  0     0  0
 26 27  1  0     0  0
M  END