
  SciTegic01091215432D

 63 68  0  0  0  0            999 V2000
   13.2424  -18.9540    0.0000 C   0  0
   13.9596  -19.3617    0.0000 C   0  0
   14.6713  -18.9445    0.0000 C   0  0
   15.3536  -19.4083    0.0000 C   0  0
   15.3841  -20.2308    0.0000 C   0  0
   16.1763  -20.4609    0.0000 C   0  0
   16.1343  -19.1268    0.0000 N   0  0
   16.6364  -19.7796    0.0000 C   0  0
   17.4482  -19.6719    0.0000 C   0  0
   16.4442  -18.3662    0.0000 B   0  5
   16.4368  -17.5398    0.0000 F   0  0
   17.2624  -18.2593    0.0000 N   0  3
   17.7639  -18.9087    0.0000 C   0  0
   18.5366  -18.6325    0.0000 C   0  0
   18.5127  -17.8123    0.0000 C   0  0
   17.7252  -17.5817    0.0000 C   0  0
   17.4475  -16.8048    0.0000 C   0  0
   17.9089  -16.1241    0.0000 C   0  0
   17.4047  -15.4711    0.0000 C   0  0
   16.6278  -15.7489    0.0000 C   0  0
   16.6520  -16.5735    0.0000 S   0  0
   15.7243  -17.9523    0.0000 F   0  0
   -1.0468  -15.6958    0.0000 C   0  0
   -1.0457  -16.5208    0.0000 C   0  0
   -0.3347  -16.9301    0.0000 C   0  0
    0.3799  -16.5190    0.0000 C   0  0
    0.3788  -15.6940    0.0000 C   0  0
   -0.3368  -15.2801    0.0000 C   0  0
   -0.3390  -14.4552    0.0000 O   0  0
    0.3744  -14.0407    0.0000 C   0  0
    1.0899  -14.4513    0.0000 C   0  0  2  0  0  0
    1.8033  -14.0369    0.0000 C   0  0
    1.0921  -15.2763    0.0000 O   0  0
    2.5189  -14.4475    0.0000 N   0  0
    3.2322  -14.0331    0.0000 C   0  0
    3.9478  -14.4437    0.0000 C   0  0
    3.9500  -15.2687    0.0000 O   0  0
    4.6656  -15.6793    0.0000 C   0  0
    5.3789  -15.2649    0.0000 C   0  0
    5.3767  -14.4399    0.0000 O   0  0
    6.0901  -14.0255    0.0000 C   0  0
    6.8057  -14.4361    0.0000 C   0  0
    6.8079  -15.2611    0.0000 N   0  0
    7.5234  -15.6717    0.0000 C   0  0
    8.2368  -15.2573    0.0000 C   0  0
    7.5256  -16.4967    0.0000 O   0  0
    8.2346  -14.4323    0.0000 C   0  0
    8.9480  -14.0179    0.0000 C   0  0
    9.6636  -14.4285    0.0000 C   0  0
    9.6658  -15.2535    0.0000 C   0  0
   10.3813  -15.6641    0.0000 N   0  0
   10.3835  -16.4891    0.0000 C   0  0
   11.0991  -16.8997    0.0000 C   0  0
    9.6702  -16.9035    0.0000 O   0  0
   11.1013  -17.7247    0.0000 O   0  0
   11.8169  -18.1353    0.0000 C   0  0
   11.8161  -18.9594    0.0000 C   0  0
   12.5308  -19.3699    0.0000 C   0  0
   13.2403  -18.1262    0.0000 C   0  0
   12.5250  -17.7194    0.0000 C   0  0
   -1.7628  -15.2860    0.0000 C   0  0
   -2.4757  -15.7011    0.0000 C   0  0
   -3.1917  -15.2912    0.0000 C   0  0
 29 30  1  0
  1  2  1  0
 30 31  1  0
 13 14  1  0
 31 32  1  0
 14 15  2  0
 31 33  1  6
 15 16  1  0
 32 34  1  0
 16 12  2  0
 34 35  1  0
  3  4  1  0
 35 36  1  0
 16 17  1  0
 36 37  1  0
 17 18  2  0
 37 38  1  0
  4  5  2  0
 38 39  1  0
 39 40  1  0
  7 10  1  0
 40 41  1  0
  8  9  1  0
 41 42  1  0
 18 19  1  0
 42 43  1  0
 19 20  2  0
 43 44  1  0
 20 21  1  0
 44 45  1  0
 21 17  1  0
 44 46  2  0
  9 13  2  0
 45 47  1  0
 10 22  1  0
 47 48  1  0
 23 24  2  0
 48 49  1  0
 12 10  1  0
 49 50  1  0
  2  3  2  0
 50 51  1  0
 10 11  1  0
 51 52  1  0
 12 13  1  0
 52 53  1  0
  5  6  1  0
 52 54  2  0
  6  8  2  0
 53 55  1  0
 23 28  1  0
 55 56  1  0
 24 25  1  0
 56 57  2  0
 25 26  2  0
 57 58  1  0
 58  1  2  0
 26 27  1  0
  1 59  1  0
 27 28  2  0
 59 60  2  0
 60 56  1  0
  7  4  1  0
 23 61  1  0
 28 29  1  0
 61 62  1  0
  7  8  1  0
 62 63  2  0
M  CHG  2  10  -1  12   1
M  END