
  SciTegic06281015402D

 46 52  0  0  0  0            999 V2000
    6.1583   -4.4125    0.0000 C   0  0  2  0  0  0
    5.4500   -4.8292    0.0000 C   0  0  1  0  0  0
    5.4458   -5.6500    0.0000 C   0  0
    6.1542   -6.0667    0.0000 C   0  0
    6.8750   -4.8250    0.0000 C   0  0  1  0  0  0
    6.8750   -5.6583    0.0000 C   0  0  2  0  0  0
    4.7333   -3.5917    0.0000 C   0  0  1  0  0  0
    4.7333   -1.9417    0.0000 C   0  0  1  0  0  0
    4.0250   -3.1792    0.0000 C   0  0  1  0  0  0
    4.0250   -2.3542    0.0000 C   0  0  1  0  0  0
    5.4458   -3.1792    0.0000 O   0  0
    4.7333   -4.4167    0.0000 O   0  0
    7.5875   -6.0708    0.0000 C   0  0
    5.4458   -2.3583    0.0000 C   0  0  2  0  0  0
    7.4875   -4.2750    0.0000 C   0  0
    4.7375   -1.1167    0.0000 O   0  0
    4.7375   -6.0542    0.0000 C   0  0
    6.1542   -6.8833    0.0000 C   0  0
    9.0083   -6.9042    0.0000 C   0  0
    7.1542   -3.5208    0.0000 O   0  0
    6.3333   -3.6083    0.0000 C   0  0
    8.2875   -7.3083    0.0000 C   0  0
    9.0125   -6.0792    0.0000 C   0  0
    5.4417   -7.2875    0.0000 C   0  0
    4.7333   -6.8792    0.0000 C   0  0
    7.5792   -6.8958    0.0000 C   0  0
    8.3000   -5.6583    0.0000 C   0  0
    6.1708   -1.1333    0.0000 O   0  0
    5.4583   -0.7125    0.0000 C   0  0  1  0  0  0
    4.1250   -7.4250    0.0000 O   0  0
    5.2708   -8.0917    0.0000 O   0  0
    6.1583   -1.9583    0.0000 C   0  0
    4.4542   -8.1750    0.0000 C   0  0
    8.2958   -4.4458    0.0000 O   0  0
    3.3083   -3.5958    0.0000 O   0  0
    3.3083   -1.9458    0.0000 O   0  0
    9.7208   -7.3208    0.0000 O   0  0
    9.7292   -5.6708    0.0000 O   0  0
    8.2833   -8.1333    0.0000 O   0  0
    5.4708    0.1125    0.0000 C   0  0
    7.5667   -8.5417    0.0000 C   0  0
   10.4417   -6.0875    0.0000 C   0  0
    5.4417   -4.0000    0.0000 H   0  0
    7.5875   -5.2375    0.0000 H   0  0
    6.1542   -2.7667    0.0000 H   0  0
    4.0167   -1.5292    0.0000 H   0  0
  2  1  1  0
  3  2  1  0
  4  6  1  0
  5  1  1  0
  6  5  1  0
  7 12  1  1
  8 14  1  0
  9  7  1  0
 10  9  1  0
 11  7  1  0
  2 12  1  1
  6 13  1  6
 14 11  1  0
 15  5  1  0
 16  8  1  0
 17  3  2  0
 18  4  2  0
 19 23  2  0
 20 21  1  0
 21  1  1  0
 22 26  2  0
 23 27  1  0
 24 18  1  0
 25 17  1  0
 26 13  1  0
 27 13  2  0
 28 32  1  0
 29 28  1  0
 30 25  1  0
 31 24  1  0
 32 14  1  0
 33 30  1  0
 34 15  2  0
  9 35  1  6
 10 36  1  1
 37 19  1  0
 38 23  1  0
 39 22  1  0
 29 40  1  6
 41 39  1  0
 42 38  1  0
  1 43  1  6
  5 44  1  1
 14 45  1  6
  8 46  1  1
 20 15  1  0
  3  4  1  0
 25 24  2  0
 19 22  1  0
  8 10  1  0
 31 33  1  0
 16 29  1  0
M  END