
  SciTegic06161611452D

 36 40  0  0  0  0            999 V2000
    1.2990   -0.7500    0.0000 N   0  0
    1.2990    0.7500    0.0000 C   0  0
    0.0000    1.5000    0.0000 C   0  0
   -1.2990    0.7500    0.0000 N   0  0
   -1.2990   -0.7500    0.0000 C   0  0
    0.0000   -1.5000    0.0000 C   0  0
    2.5987   -1.5004    0.0000 C   0  0
    3.8991   -0.7525    0.0000 C   0  0
    5.1969   -1.5045    0.0000 C   0  0
    5.1945   -3.0045    0.0000 C   0  0
    3.8943   -3.7525    0.0000 C   0  0
    2.5965   -3.0004    0.0000 C   0  0
    6.4915   -3.7597    0.0000 O   0  0
    6.4870   -5.2605    0.0000 C   0  0
    7.7840   -6.0156    0.0000 C   0  0  1  0  0  0
    7.9196   -7.4967    0.0000 O   0  0
    9.3863   -7.8109    0.0000 C   0  0  1  0  0  0
   10.1383   -6.5131    0.0000 O   0  0
    9.1364   -5.3968    0.0000 C   0  0
    8.4909   -8.9992    0.0000 C   0  0
   10.8677   -7.9451    0.0000 C   0  0
   11.7523   -6.7326    0.0000 N   0  0
   13.2388   -6.7333    0.0000 C   0  0
   13.6858   -5.3015    0.0000 C   0  0
   12.4622   -4.4338    0.0000 N   0  0
   11.2589   -5.3294    0.0000 C   0  0
    9.0770  -10.3799    0.0000 C   0  0
    8.1743  -11.5779    0.0000 C   0  0
    6.6855  -11.3951    0.0000 C   0  0
    6.0993  -10.0143    0.0000 C   0  0
    7.0021   -8.8164    0.0000 C   0  0
    6.5332   -7.7118    0.0000 Cl  0  0
    5.9633  -12.3535    0.0000 Cl  0  0
   -2.6003    1.4977    0.0000 C   0  0
   -2.6024    2.6977    0.0000 C   0  0
   -3.6387    0.8962    0.0000 O   0  0
  1  2  1  0
  2  3  1  0
  3  4  1  0
  4  5  1  0
  5  6  1  0
  6  1  1  0
  1  7  1  0
  7  8  1  0
 12  7  2  0
  8  9  2  0
  9 10  1  0
 10 11  2  0
 11 12  1  0
 10 13  1  0
 13 14  1  0
 15 14  1  6
 15 16  1  0
 15 19  1  0
 16 17  1  0
 17 18  1  0
 18 19  1  0
 17 20  1  1
 17 21  1  0
 21 22  1  0
 22 23  1  0
 22 26  1  0
 23 24  2  0
 24 25  1  0
 25 26  2  0
 20 27  1  0
 20 31  2  0
 27 28  2  0
 28 29  1  0
 29 30  2  0
 30 31  1  0
 31 32  1  0
 29 33  1  0
  4 34  1  0
 34 35  1  0
 34 36  2  0
M  END
