
  SciTegic12091219232D

 23 27  0  0  1  0            999 V2000
    0.7375   -6.3458    0.0000 N   0  0
    0.1125   -5.9917    0.0000 C   0  0
   -0.5125   -6.3458    0.0000 C   0  0
    1.3625   -5.9917    0.0000 C   0  0  2  0  0  0
    0.7375   -7.0708    0.0000 C   0  0
   -0.5125   -7.0708    0.0000 C   0  0
    0.1125   -7.4333    0.0000 C   0  0  2  0  0  0
    1.9875   -4.9083    0.0000 N   0  0
    1.3625   -5.2708    0.0000 C   0  0
    0.1125   -5.2708    0.0000 O   0  0
    1.9875   -6.3458    0.0000 C   0  0
   -1.1333   -7.4333    0.0000 C   0  0
    2.6125   -5.9917    0.0000 C   0  0
    2.2417   -5.8083    0.0000 C   0  0
    2.6125   -5.2708    0.0000 C   0  0
    1.7625   -5.5208    0.0000 C   0  0
   -1.1375   -5.9833    0.0000 C   0  0
    0.1125   -8.1542    0.0000 C   0  0
   -1.7625   -6.3458    0.0000 C   0  0
   -0.5125   -8.5167    0.0000 C   0  0
   -1.7625   -7.0708    0.0000 C   0  0
   -1.1333   -8.1542    0.0000 C   0  0
    0.9790   -7.9324    0.0000 H   0  0
  2  1  1  0
  3  2  1  0
  4  1  1  6
  5  1  1  0
  6  7  1  0
  7  5  1  0
  8  9  1  0
  9  4  1  0
 10  2  2  0
 11  4  1  0
 12  6  1  0
 13 11  1  0
 14 11  1  0
 15 13  1  0
 16 14  1  0
 17  3  1  0
 18  7  1  0
 19 17  2  0
 20 18  1  0
 21 12  2  0
 22 20  1  0
  3  6  2  0
  8 16  1  0
 15  8  1  0
 22 12  1  0
 19 21  1  0
  7 23  1  6
M  END