
  SciTegic12091219292D

 18 18  0  0  0  0            999 V2000
   -0.9458   -0.9000    0.0000 O   0  0
   -2.0833   -0.9000    0.0000 C   0  0
    0.7500    0.0708    0.0000 N   0  0
   -2.6458    0.0708    0.0000 C   0  0
   -2.6333    2.0708    0.0000 C   0  0
   -2.0583    3.0625    0.0000 C   0  0
    0.7500   -1.8750    0.0000 C   0  0
   -0.3833   -1.8750    0.0000 C   0  0
    1.3125   -0.9000    0.0000 C   0  0
    1.3125   -2.8500    0.0000 O   0  0
   -2.0583    1.0708    0.0000 C   0  0
    1.3125    1.0458    0.0000 C   0  0
   -2.6458   -1.8750    0.0000 C   0  0
   -3.7833    0.0708    0.0000 C   0  0
    0.7500    2.0208    0.0000 C   0  0
    2.4417    1.0458    0.0000 C   0  0
   -4.3458   -0.9000    0.0000 C   0  0
   -3.7833   -1.8750    0.0000 C   0  0
  2  1  1  0
  3  9  1  0
  4  2  1  0
  5 11  1  0
  6  5  2  0
  7  8  1  0
  8  1  1  0
  9  7  1  0
 10  7  1  0
 11  4  1  0
 12  3  1  0
 13  2  2  0
 14  4  2  0
 15 12  1  0
 16 12  1  0
 17 18  2  0
 18 13  1  0
 14 17  1  0
M  END