
  SciTegic07101214422D

 78 86  0  0  0  0            999 V2000
   14.9800   -2.7109    0.0000 B   0  5
   14.2675   -2.2949    0.0000 F   0  0
   14.2635   -3.1200    0.0000 F   0  0
   15.7968   -4.6964    0.0000 C   0  0
   16.4653   -4.2131    0.0000 C   0  0
   15.1305   -4.2059    0.0000 C   0  0
   15.3895   -3.4227    0.0000 N   0  3
   16.2130   -3.4277    0.0000 C   0  0
   16.6269   -2.7211    0.0000 C   0  0
   15.3984   -1.9997    0.0000 N   0  0
   16.2190   -2.0017    0.0000 C   0  0
   16.4746   -1.2219    0.0000 C   0  0
   15.8118   -0.7377    0.0000 C   0  0
   15.1467   -1.2186    0.0000 C   0  0
   14.3627   -0.9617    0.0000 C   0  0
   14.1090   -0.1780    0.0000 S   0  0
   13.2841   -0.1760    0.0000 C   0  0
   13.0272   -0.9601    0.0000 C   0  0
   13.6936   -1.4465    0.0000 C   0  0
   -7.7111   -8.4374    0.0000 C   0  0
   -7.7099   -9.2648    0.0000 C   0  0
   -6.9998   -9.6777    0.0000 C   0  0
   -6.2828   -9.2643    0.0000 C   0  0
   -6.9980   -8.0247    0.0000 C   0  0
   -6.2847   -8.4356    0.0000 C   0  0
   -6.2935   -6.7942    0.0000 C   0  0
   -7.0036   -7.2073    0.0000 N   0  0
   -5.5734   -7.2032    0.0000 C   0  0
   -5.5682   -8.0265    0.0000 N   0  0
   -4.7835   -8.2760    0.0000 C   0  0
   -4.3038   -7.6068    0.0000 N   0  0
   -4.7920   -6.9439    0.0000 N   0  0
   -4.5237   -9.0590    0.0000 O   0  0
   -6.2977   -5.9692    0.0000 N   0  0
   -5.5817   -5.5530    0.0000 C   0  0
   -5.5860   -4.7280    0.0000 O   0  0
   -4.8651   -5.9618    0.0000 C   0  0
   -3.4812   -7.6011    0.0000 C   0  0
   -3.0647   -8.3146    0.0000 C   0  0
   -2.2405   -8.3097    0.0000 C   0  0
   -1.8318   -7.5920    0.0000 C   0  0
   -2.2532   -6.8779    0.0000 C   0  0
   -3.0761   -6.8863    0.0000 C   0  0
   -1.0068   -7.5857    0.0000 O   0  0
   -0.5888   -8.2970    0.0000 C   0  0
   -4.1528   -5.5456    0.0000 C   0  0
   -3.4362   -5.9544    0.0000 C   0  0
   -2.7238   -5.5382    0.0000 N   0  0
   -3.4319   -6.7794    0.0000 O   0  0
   -2.0073   -5.9470    0.0000 C   0  0
   -1.2949   -5.5309    0.0000 C   0  0
   -0.5783   -5.9397    0.0000 C   0  0
    0.1340   -5.5235    0.0000 C   0  0
    0.8506   -5.9323    0.0000 C   0  0
    1.5629   -5.5161    0.0000 C   0  0
    2.2795   -5.9249    0.0000 C   0  0
    2.9918   -5.5087    0.0000 C   0  0
    3.7084   -5.9175    0.0000 N   0  0
    4.4208   -5.5014    0.0000 C   0  0
    5.1374   -5.9102    0.0000 C   0  0
    4.4165   -4.6764    0.0000 O   0  0
    5.8497   -5.4940    0.0000 C   0  0
    6.5663   -5.9028    0.0000 C   0  0
    7.2786   -5.4866    0.0000 C   0  0
    7.9952   -5.8954    0.0000 C   0  0
    8.7075   -5.4792    0.0000 N   0  0
    9.4241   -5.8880    0.0000 C   0  0
    9.4284   -6.7130    0.0000 O   0  0
   10.1365   -5.4719    0.0000 C   0  0
   10.8530   -5.8807    0.0000 O   0  0
   11.5654   -5.4645    0.0000 C   0  0
   12.2804   -5.8741    0.0000 C   0  0
   12.9923   -5.4586    0.0000 C   0  0
   12.9884   -4.6328    0.0000 C   0  0
   12.2668   -4.2241    0.0000 C   0  0
   11.5579   -4.6420    0.0000 C   0  0
   13.7002   -4.2156    0.0000 C   0  0
   14.4174   -4.6235    0.0000 C   0  0
 11 12  2  0
 12 13  1  0
 13 14  2  0
 14 10  1  0
 14 15  1  0
 15 16  1  0
 16 17  1  0
 17 18  2  0
 18 19  1  0
 19 15  2  0
  1  3  1  0
  2  1  1  0
  4  5  2  0
  5  8  1  0
  7  6  2  0
  6  4  1  0
  7  8  1  0
  7  1  1  0
  8  9  2  0
  9 11  1  0
 10  1  1  0
 10 11  1  0
 53 54  1  0
 25 29  1  0
 54 55  1  0
 34 35  1  0
 55 56  1  0
 56 57  1  0
 35 36  2  0
 57 58  1  0
 28 26  1  0
 58 59  1  0
 35 37  1  0
 59 60  1  0
 21 22  1  0
 59 61  2  0
 26 27  2  0
 60 62  1  0
 38 39  2  0
 62 63  1  0
 27 24  1  0
 63 64  1  0
 39 40  1  0
 64 65  1  0
 28 29  1  0
 65 66  1  0
 40 41  2  0
 66 67  1  0
 67 68  2  0
 41 42  1  0
 67 69  1  0
 22 23  2  0
 69 70  1  0
 42 43  2  0
 70 71  1  0
 43 38  1  0
 71 72  2  0
 31 38  1  0
 72 73  1  0
 23 25  1  0
 73 74  2  0
 41 44  1  0
 74 75  1  0
 24 20  1  0
 75 76  2  0
 76 71  1  0
 44 45  1  0
 74 77  1  0
 77 78  2  0
 37 46  1  0
 29 30  1  0
 46 47  1  0
 30 31  1  0
 47 48  1  0
 31 32  1  0
 47 49  2  0
 32 28  2  0
 48 50  1  0
 20 21  2  0
 50 51  1  0
 30 33  2  0
 51 52  1  0
 24 25  2  0
 52 53  1  0
 26 34  1  0
 78  6  1  0
M  CHG  2   1  -1   7   1
M  END