
  SciTegic10301317112D

 56 60  0  0  0  0            999 V2000
   15.7599   -5.0692    0.0000 N   0  0
   13.8696   -3.9778    0.0000 N   0  0
   15.2198   -4.4456    0.0000 C   0  0
   14.4097   -4.6015    0.0000 C   0  0  2  0  0  0
   16.5819   -4.9988    0.0000 C   0  0  2  0  0  0
   14.1396   -3.1983    0.0000 C   0  0
   17.0081   -4.2925    0.0000 C   0  0
   13.5995   -2.5747    0.0000 C   0  0  1  0  0  0
   13.0594   -4.1338    0.0000 C   0  0
   15.5728   -5.8727    0.0000 C   0  0
   12.7894   -2.7306    0.0000 N   0  0
   16.9028   -5.7589    0.0000 C   0  0
   12.2493   -2.1069    0.0000 C   0  0
   14.1396   -5.3810    0.0000 C   0  0
   17.8330   -4.3084    0.0000 N   0  0
   16.2792   -6.2989    0.0000 C   0  0
   10.6290   -0.2360    0.0000 C   0  0
   19.0012   -7.9040    0.0000 C   0  0
   13.8696   -1.7951    0.0000 C   0  0
   19.0564   -5.0466    0.0000 C   0  0
   12.7894   -4.9133    0.0000 C   0  0
   14.6797   -1.6392    0.0000 C   0  0
   13.3295   -5.5369    0.0000 C   0  0
   15.2820   -2.2030    0.0000 S   0  0
   15.4898   -3.6660    0.0000 O   0  0
   18.2316   -5.0307    0.0000 C   0  0  2  0  0  0
   19.4274   -7.1976    0.0000 N   0  0
   11.1691   -0.8596    0.0000 N   0  0
   14.9498   -3.0424    0.0000 O   0  0
   16.6095   -3.5702    0.0000 O   0  0
   12.5194   -1.3274    0.0000 O   0  0
   16.0043   -1.8043    0.0000 C   0  0
   15.0298   -0.8921    0.0000 C   0  0
   19.4550   -5.7689    0.0000 O   0  0
   15.8484   -0.9942    0.0000 C   0  0
   11.4392   -2.2628    0.0000 C   0  0  1  0  0  0
   18.1764   -7.8881    0.0000 N   0  0
    9.8189   -0.3919    0.0000 N   0  0
   19.3999   -8.6263    0.0000 N   0  0
   10.8991    0.5436    0.0000 N   0  0
   19.4826   -4.3403    0.0000 O   0  0
   11.1691   -3.0424    0.0000 N   0  0
   14.8505   -6.2713    0.0000 C   0  0
   16.2632   -7.1238    0.0000 C   0  0
   11.9793   -5.0692    0.0000 C   0  0
   13.0594   -6.3165    0.0000 C   0  0
   17.8054   -5.7371    0.0000 C   0  0
   17.7778   -7.1658    0.0000 C   0  0
    9.5489   -1.1715    0.0000 C   0  0
   10.8991   -1.6392    0.0000 C   0  0
   18.2040   -6.4594    0.0000 C   0  0
   10.0890   -1.7951    0.0000 C   0  0
   14.8346   -7.0962    0.0000 C   0  0
   15.5409   -7.5224    0.0000 C   0  0
   12.2493   -6.4724    0.0000 C   0  0
   11.7092   -5.8488    0.0000 C   0  0
  2  4  1  0
  3  1  1  0
  4  3  1  6
  5  1  1  0
  6  2  1  0
  5  7  1  6
  8  6  1  0
  9  2  1  0
 10  1  1  0
 11  8  1  0
 12  5  1  0
 13 11  1  0
 14  4  1  0
 15  7  1  0
 16 10  1  0
 17 38  2  0
 18 37  2  0
  8 19  1  1
 26 20  1  6
 21 23  2  0
 22 19  1  0
 23 14  1  0
 24 22  1  0
 25  3  2  0
 26 15  1  0
 27 18  1  0
 28 17  1  0
 29  6  2  0
 30  7  2  0
 31 13  2  0
 32 24  1  0
 33 22  2  0
 34 20  2  0
 35 33  1  0
 36 13  1  0
 37 48  1  0
 38 49  1  0
 39 18  1  0
 40 17  1  0
 41 20  1  0
 36 42  1  1
 43 10  1  0
 44 16  1  0
 45 21  1  0
 46 23  1  0
 47 26  1  0
 48 51  1  0
 49 52  1  0
 50 36  1  0
 51 47  1  0
 52 50  1  0
 53 43  1  0
 54 53  1  0
 55 46  2  0
 56 55  1  0
 16 12  1  0
 54 44  1  0
 21  9  1  0
 56 45  2  0
 35 32  2  0
M  END