
  SciTegic01091215432D

 57 62  0  0  0  0            999 V2000
   -2.1367   -8.2463    0.0000 C   0  0
   -2.1359   -9.0732    0.0000 C   0  0
   -1.4206   -9.4841    0.0000 C   0  0
   -0.7056   -9.0694    0.0000 C   0  0
   -0.7104   -8.2394    0.0000 C   0  0
   -1.4263   -7.8322    0.0000 C   0  0
   -1.4306   -7.0072    0.0000 O   0  0
   -0.7184   -6.5909    0.0000 C   0  0
   -0.0017   -6.9996    0.0000 C   0  0
    0.7106   -6.5833    0.0000 C   0  0
    0.0027   -7.8246    0.0000 O   0  0
    1.4272   -6.9920    0.0000 N   0  0
    2.1395   -6.5757    0.0000 C   0  0
    2.8561   -6.9845    0.0000 C   0  0
    3.5684   -6.5682    0.0000 N   0  0
    4.2851   -6.9769    0.0000 C   0  0
    4.9973   -6.5606    0.0000 C   0  0
    4.2894   -7.8019    0.0000 O   0  0
    5.7140   -6.9693    0.0000 C   0  0
    5.7184   -7.7943    0.0000 C   0  0
    6.4350   -8.2030    0.0000 C   0  0
    6.4394   -9.0280    0.0000 C   0  0
    5.7271   -9.4443    0.0000 N   0  0
    5.7315  -10.2692    0.0000 C   0  0
    5.0192  -10.6855    0.0000 O   0  0
    6.4481  -10.6780    0.0000 C   0  0
    6.4525  -11.5029    0.0000 O   0  0
    7.1692  -11.9116    0.0000 C   0  0
    7.1683  -12.7344    0.0000 C   0  0
    7.8841  -13.1431    0.0000 C   0  0
    8.5973  -12.7267    0.0000 C   0  0
    8.5903  -11.8975    0.0000 C   0  0
    7.8739  -11.4926    0.0000 C   0  0
    9.3145  -13.1345    0.0000 C   0  0
   10.0262  -12.7172    0.0000 C   0  0
   10.7085  -13.1811    0.0000 C   0  0
   10.7390  -14.0035    0.0000 C   0  0
   11.5312  -14.2337    0.0000 C   0  0
   11.4892  -12.8995    0.0000 N   0  0
   11.9913  -13.5524    0.0000 C   0  0
   12.8031  -13.4446    0.0000 C   0  0
   11.7991  -12.1389    0.0000 B   0  5
   11.7917  -11.3125    0.0000 F   0  0
   12.6173  -12.0320    0.0000 N   0  3
   13.1188  -12.6815    0.0000 C   0  0
   13.8915  -12.4053    0.0000 C   0  0
   13.8676  -11.5850    0.0000 C   0  0
   13.0801  -11.3544    0.0000 C   0  0
   12.8024  -10.5776    0.0000 C   0  0
   13.2638   -9.8969    0.0000 C   0  0
   12.7596   -9.2439    0.0000 C   0  0
   11.9827   -9.5216    0.0000 C   0  0
   12.0069  -10.3462    0.0000 S   0  0
   11.0792  -11.7250    0.0000 F   0  0
   -2.8522   -7.8357    0.0000 C   0  0
   -3.5656   -8.2500    0.0000 C   0  0
   -4.2812   -7.8393    0.0000 C   0  0
 13 14  1  0
 28 29  2  0
  6  7  1  0
 29 30  1  0
 14 15  1  0
 30 31  2  0
  3  4  2  0
 31 32  1  0
 15 16  1  0
 32 33  2  0
 33 28  1  0
  7  8  1  0
 31 34  1  0
 16 17  1  0
 34 35  2  0
 35 36  1  0
 36 37  2  0
 16 18  2  0
  8  9  1  0
 37 38  1  0
 38 40  2  0
 39 36  1  0
 39 40  1  0
 17 19  1  0
  4  5  1  0
 19 20  1  0
  9 10  1  0
 39 42  1  0
 40 41  1  0
 41 45  2  0
 44 42  1  0
 20 21  1  0
 42 43  1  0
 44 45  1  0
  2  3  1  0
 21 22  1  0
  9 11  1  0
 22 23  1  0
  5  6  2  0
 45 46  1  0
 46 47  2  0
 47 48  1  0
 48 44  2  0
 23 24  1  0
 48 49  1  0
 49 50  2  0
 10 12  1  0
 24 25  2  0
  6  1  1  0
 24 26  1  0
 50 51  1  0
 51 52  2  0
 52 53  1  0
 53 49  1  0
 12 13  1  0
 42 54  1  0
 26 27  1  0
  1 55  1  0
  1  2  2  0
 55 56  1  0
 27 28  1  0
 56 57  2  0
M  CHG  2  42  -1  44   1
M  END