
  SciTegic02271515152D

 72 73  0  0  0  0            999 V2000
    7.5725   -1.4797    0.0000 N   0  0
    7.5725   -0.6579    0.0000 C   0  0
    6.8554   -0.2429    0.0000 N   0  0
    8.2856   -0.2429    0.0000 N   0  0
    5.4293   -4.3682    0.0000 N   0  0
    6.1423   -3.9532    0.0000 C   0  0  2  0  0  0
    6.8554   -5.1899    0.0000 O   0  0
    6.8554   -4.3682    0.0000 C   0  0
    6.1423   -3.1315    0.0000 C   0  0
    6.8554   -2.7164    0.0000 C   0  0
    6.8554   -1.8947    0.0000 C   0  0
    7.5725   -3.9532    0.0000 N   0  0
    8.2856   -4.3682    0.0000 C   0  0  2  0  0  0
    8.9986   -3.1315    0.0000 O   0  0
    8.9986   -3.9532    0.0000 C   0  0
    8.2856   -5.1899    0.0000 C   0  0
    8.9986   -6.4266    0.0000 C   0  0
    8.9986   -5.6049    0.0000 C   0  0
    9.7116   -5.1899    0.0000 C   0  0
   10.4288   -5.6049    0.0000 C   0  0
   10.4288   -6.4266    0.0000 C   0  0
    9.7116   -6.8416    0.0000 C   0  0
   11.1418   -6.8416    0.0000 O   0  0
    9.7116   -4.3682    0.0000 N   0  0
   10.4288   -3.9532    0.0000 C   0  0  2  0  0  0
   11.1418   -5.1899    0.0000 O   0  0
   11.1418   -4.3682    0.0000 C   0  0
   10.4288   -3.1315    0.0000 C   0  0
   11.1418   -1.8947    0.0000 C   0  0
   11.1418   -2.7164    0.0000 C   0  0
   11.8548   -3.1315    0.0000 C   0  0
   12.5679   -2.7164    0.0000 C   0  0
   12.5679   -1.8947    0.0000 C   0  0
   11.8548   -1.4797    0.0000 C   0  0
   13.2809   -1.4797    0.0000 O   0  0
   13.9980   -6.8416    0.0000 N   0  0
   13.9980   -7.6633    0.0000 C   0  0
   13.2809   -8.0783    0.0000 N   0  0
   14.7111   -8.0783    0.0000 N   0  0
   11.8548   -3.9532    0.0000 N   0  0
   12.5679   -4.3682    0.0000 C   0  0  2  0  0  0
   13.2809   -3.1315    0.0000 O   0  0
   13.2809   -3.9532    0.0000 C   0  0
   12.5679   -5.1899    0.0000 C   0  0
   13.2809   -5.6049    0.0000 C   0  0
   13.2809   -6.4266    0.0000 C   0  0
   13.9980   -4.3682    0.0000 N   0  0
   14.7111   -3.9532    0.0000 C   0  0  2  0  0  0
   15.4241   -5.1899    0.0000 O   0  0
   15.4241   -4.3682    0.0000 C   0  0
   14.7111   -3.1315    0.0000 C   0  0  1  0  0  0
   15.4241   -2.7164    0.0000 C   0  0
   13.9980   -2.7164    0.0000 C   0  0
   13.9980   -1.8947    0.0000 C   0  0
   16.1370   -3.9532    0.0000 N   0  0
   16.8543   -4.3682    0.0000 C   0  0  2  0  0  0
   17.5673   -3.1315    0.0000 O   0  0
   17.5673   -3.9532    0.0000 C   0  0
   16.8543   -5.1899    0.0000 C   0  0
   17.5673   -5.6049    0.0000 C   0  0
   17.5673   -6.4266    0.0000 C   0  0
   18.2802   -6.8416    0.0000 C   0  0
   18.2802   -7.6633    0.0000 N   0  0
   18.2802   -4.3682    0.0000 N   0  0
    4.7163   -3.9598    0.0000 C   0  0
    4.0061   -4.3732    0.0000 C   0  0
    4.7134   -3.1381    0.0000 O   0  0
    3.2930   -3.9647    0.0000 C   0  0
    4.0090   -5.1948    0.0000 T   0  0
    3.2901   -3.1431    0.0000 C   0  0
    2.5828   -4.3781    0.0000 C   0  0
    2.5772   -3.5525    0.0000 T   0  0
  8 12  1  0
 15 24  1  0
 27 40  1  0
 43 47  1  0
 50 55  1  0
 58 64  1  0
  1  2  1  0
  2  3  1  0
  2  4  2  0
  5  6  1  0
  6  8  1  0
  8  7  2  0
  6  9  1  1
  9 10  1  0
 10 11  1  0
 11  1  1  0
 12 13  1  0
 13 15  1  0
 15 14  2  0
 13 16  1  6
 16 18  1  0
 17 18  2  0
 18 19  1  0
 19 20  2  0
 20 21  1  0
 21 22  2  0
 22 17  1  0
 21 23  1  0
 24 25  1  0
 25 27  1  0
 27 26  2  0
 25 28  1  1
 28 30  1  0
 29 30  2  0
 30 31  1  0
 31 32  2  0
 32 33  1  0
 33 34  2  0
 34 29  1  0
 33 35  1  0
 36 37  1  0
 37 38  1  0
 37 39  2  0
 40 41  1  0
 41 43  1  0
 43 42  2  0
 41 44  1  6
 44 45  1  0
 45 46  1  0
 46 36  1  0
 48 47  1  1
 48 50  1  0
 50 49  2  0
 48 51  1  0
 51 52  1  6
 51 53  1  0
 53 54  1  0
 55 56  1  0
 56 58  1  0
 58 57  2  0
 56 59  1  6
 59 60  1  0
 60 61  1  0
 61 62  1  0
 62 63  1  0
  5 65  1  0
 65 66  1  0
 65 67  2  0
 66 68  1  0
 66 69  1  0
 68 70  1  0
 68 71  1  0
 68 72  1  0
M  END