
  SciTegic01111613442D

 15 16  0  0  0  0            999 V2000
    1.2990   -0.7500    0.0000 C   0  0
    1.2990    0.7500    0.0000 N   0  0
    0.0000    1.5000    0.0000 C   0  0
   -1.2990    0.7500    0.0000 N   0  0
    0.0000   -1.5000    0.0000 C   0  0
   -1.2990   -0.7500    0.0000 C   0  0
    0.0000    2.7000    0.0000 O   0  0
    2.5987    1.5004    0.0000 C   0  0  2  0  0  0
    3.9511    0.8815    0.0000 O   0  0
    4.9530    1.9978    0.0000 C   0  0  1  0  0  0
    4.2010    3.2957    0.0000 C   0  0
    2.7342    2.9815    0.0000 C   0  0
    6.4430    1.8405    0.0000 C   0  0
    6.9313    0.7443    0.0000 O   0  0
   -2.3383   -1.3500    0.0000 N   0  0
  8  2  1  1
  8  9  1  0
  3  4  1  0
  4  6  2  0
  5  6  1  0
  1  2  1  0
  9 10  1  0
 10 11  1  0
 11 12  1  0
 12  8  1  0
  5  1  2  0
 10 13  1  1
  2  3  1  0
 13 14  1  0
  3  7  2  0
  6 15  1  0
M  END