
  SciTegic04091511462D

 72 76  0  0  0  0            999 V2000
    2.3228  -10.7542    0.0000 C   0  0
    2.3228   -9.9292    0.0000 C   0  0  2  0  0  0
    3.0373   -9.5167    0.0000 C   0  0  2  0  0  0
    3.0373   -8.6917    0.0000 C   0  0
    2.3228   -8.2792    0.0000 O   0  0
    3.7517   -9.9292    0.0000 N   0  0
    1.6083   -9.5167    0.0000 O   0  0
    4.4662   -9.5167    0.0000 C   0  0
    5.1807   -9.9292    0.0000 C   0  0  2  0  0  0
    4.4662   -8.6917    0.0000 O   0  0
    5.8952   -8.6917    0.0000 S   0  0
    6.6096   -8.2792    0.0000 S   0  0
    6.6096   -7.4542    0.0000 C   0  0
    7.3241   -7.0417    0.0000 C   0  0  2  0  0  0
    7.3241   -6.2167    0.0000 N   0  0
    8.0386   -7.4542    0.0000 C   0  0
    8.0386   -8.2792    0.0000 O   0  0
    8.7530   -7.0417    0.0000 N   0  0
    9.4675   -7.4542    0.0000 C   0  0  1  0  0  0
   10.1820   -7.0417    0.0000 C   0  0
   10.1820   -6.2167    0.0000 C   0  0
   10.8981   -5.8049    0.0000 C   0  0
   10.8985   -4.9806    0.0000 C   0  0
   10.1834   -4.5673    0.0000 C   0  0
    9.4666   -4.9842    0.0000 C   0  0
    9.4698   -5.8071    0.0000 C   0  0
    9.4675   -8.2792    0.0000 C   0  0
    8.7530   -8.6917    0.0000 O   0  0
   10.1820   -8.6917    0.0000 N   0  0
   10.1820   -9.5167    0.0000 C   0  0  1  0  0  0
    9.4675   -9.9292    0.0000 C   0  0
    9.4675  -10.7542    0.0000 N   0  0
    8.7530   -9.5167    0.0000 O   0  0
    8.7530  -11.1667    0.0000 C   0  0  1  0  0  0
    8.7530  -11.9917    0.0000 C   0  0
    8.0386  -10.7542    0.0000 C   0  0
    8.0386   -9.9292    0.0000 O   0  0
    7.3241  -11.1667    0.0000 N   0  0
    6.6096  -10.7542    0.0000 C   0  0  1  0  0  0
    6.6096   -9.9292    0.0000 C   0  0  2  0  0  0
    5.8952   -9.5167    0.0000 C   0  0
    7.3208   -9.5083    0.0000 O   0  0
    5.8952  -11.1667    0.0000 C   0  0
    5.8875  -11.9875    0.0000 O   0  0
    5.1807  -10.7542    0.0000 N   0  0
    5.8917  -10.3333    0.0000 C   0  0
    9.4675  -12.4042    0.0000 C   0  0
    9.4675  -13.2292    0.0000 C   0  0
   10.1820  -13.6417    0.0000 C   0  0
   10.1820  -14.4667    0.0000 N   0  0
   10.8965   -9.9292    0.0000 C   0  0
   11.6109   -9.5167    0.0000 C   0  0
   12.5033   -8.5192    0.0000 N   0  0
   11.6964   -8.6909    0.0000 C   0  0
   12.9159   -9.2338    0.0000 C   0  0
   12.3635   -9.8451    0.0000 C   0  0
   12.6153  -10.6247    0.0000 C   0  0
   13.4198  -10.7995    0.0000 C   0  0
   13.9722  -10.1882    0.0000 C   0  0
   13.7200   -9.4021    0.0000 C   0  0
    6.6096   -5.8042    0.0000 C   0  0
    6.6096   -4.9792    0.0000 C   0  0  2  0  0  0
    5.8952   -6.2167    0.0000 O   0  0
    7.3241   -4.5667    0.0000 N   0  0
    5.8952   -4.5667    0.0000 C   0  0
    5.8952   -3.7417    0.0000 C   0  0
    6.6152   -3.3284    0.0000 C   0  0
    6.6156   -2.5041    0.0000 C   0  0
    5.9006   -2.0908    0.0000 C   0  0
    5.1837   -2.5077    0.0000 C   0  0
    5.1869   -3.3306    0.0000 C   0  0
    6.6042  -11.5750    0.0000 H   0  0
  9  8  1  6
 34 36  1  0
 16 18  1  0
 36 37  2  0
  4  5  1  0
 36 38  1  0
 18 19  1  0
 38 39  1  0
  8 10  2  0
 39 40  1  0
 19 20  1  1
  9 41  1  0
 40 42  1  1
 20 21  1  0
 39 43  1  0
  2  3  1  0
 43 44  2  0
 43 45  1  0
 21 22  2  0
  9 45  1  0
 41 11  1  0
 40 46  1  0
 22 23  1  0
 35 47  1  0
  3  6  1  6
 47 48  1  0
 23 24  2  0
 48 49  1  0
 11 12  1  0
 49 50  1  0
 24 25  1  0
 30 51  1  6
  1  2  1  0
 51 52  1  0
 52 56  1  0
 25 26  2  0
 26 21  1  0
 55 53  1  0
 53 54  1  0
 54 52  2  0
 55 56  1  0
 12 13  1  0
 19 27  1  0
  2  7  1  1
 27 28  2  0
 13 14  1  0
 27 29  1  0
 55 60  2  0
 56 57  2  0
 57 58  1  0
 58 59  2  0
 59 60  1  0
  3  4  1  0
 15 61  1  0
 29 30  1  0
 61 62  1  0
 14 15  1  6
 61 63  2  0
 30 31  1  0
 62 64  1  1
  6  8  1  0
 62 65  1  0
 31 32  1  0
 65 66  1  0
 14 16  1  0
 66 67  2  0
 31 33  2  0
 67 68  1  0
 68 69  2  0
 32 34  1  0
 69 70  1  0
 16 17  2  0
 70 71  2  0
 71 66  1  0
 34 35  1  1
 39 72  1  1
M  END