
  SciTegic12231509382D

 33 37  0  0  0  0            999 V2000
   -1.6443    2.8757    0.0000 C   0  0
   -1.3894    2.0911    0.0000 C   0  0
   -2.0568    1.6062    0.0000 C   0  0
   -2.0568    0.7812    0.0000 N   0  0
   -2.7242    2.0911    0.0000 C   0  0
   -2.4693    2.8757    0.0000 C   0  0
   -2.7713    0.3687    0.0000 C   0  0
   -2.7713   -0.4563    0.0000 C   0  0
   -2.0568   -0.8688    0.0000 C   0  0
   -1.3423   -0.4563    0.0000 C   0  0
   -1.3423    0.3687    0.0000 C   0  0
   -0.6279    0.7812    0.0000 N   0  0
    0.0866   -0.4563    0.0000 N   0  0
   -0.6279   -0.8688    0.0000 C   0  0
   -2.0568   -1.6938    0.0000 C   0  0
   -3.4858   -0.8688    0.0000 C   0  0
   -3.4858   -1.6938    0.0000 C   0  0
   -4.2002   -0.4563    0.0000 O   0  0
   -3.4858    0.7812    0.0000 O   0  0
    3.6590   -0.8688    0.0000 N   0  0
    4.3734   -0.4563    0.0000 C   0  0
    5.0879   -0.8688    0.0000 C   0  0
    5.0879   -1.6938    0.0000 N   0  0
    4.3734   -2.1063    0.0000 C   0  0
    3.6590   -1.6938    0.0000 C   0  0
    2.9445   -0.4563    0.0000 C   0  0
    2.9445    0.3687    0.0000 C   0  0
    2.2300    0.7812    0.0000 N   0  0
    1.5155    0.3687    0.0000 C   0  0
    0.8011    0.7812    0.0000 N   0  0
    1.5155   -0.4563    0.0000 C   0  0
    2.2300   -0.8688    0.0000 C   0  0
    0.0866    0.3687    0.0000 C   0  0
  1  2  1  0
  2  3  1  0
  3  4  1  0
  3  5  1  0
  4  7  1  0
  4 11  1  0
  5  6  1  0
  6  1  1  0
  7 19  2  0
  8  7  1  0
  8 16  1  0
  9  8  2  0
 10  9  1  0
 11 12  1  0
 11 10  2  0
 12 33  2  0
 13 14  2  0
 14 10  1  0
 15  9  1  0
 16 18  2  0
 17 16  1  0
 20 21  1  0
 21 22  1  0
 22 23  1  0
 23 24  1  0
 24 25  1  0
 25 20  1  0
 26 20  1  0
 26 32  1  0
 27 26  2  0
 27 28  1  0
 28 29  2  0
 29 30  1  0
 31 29  1  0
 32 31  2  0
 33 30  1  0
 33 13  1  0
M  END