
  SciTegic12091219282D

 20 20  0  0  0  0            999 V2000
    3.2667   -5.0375    0.0000 C   0  0
    3.2542   -5.7667    0.0000 C   0  0
    2.6417   -4.6792    0.0000 C   0  0
    3.8917   -4.6792    0.0000 C   0  0
    2.6417   -6.1167    0.0000 C   0  0
    2.0292   -5.0292    0.0000 C   0  0
    2.0083   -5.7500    0.0000 C   0  0
    3.8875   -3.9792    0.0000 O   0  0
    4.5000   -5.0625    0.0000 N   0  0
    1.4000   -6.1000    0.0000 N   0  0
    1.4042   -4.6667    0.0000 Cl  0  0
    3.8750   -6.1167    0.0000 O   0  0
    6.3292   -4.7125    0.0000 N   0  0
    5.1125   -4.7167    0.0000 C   0  0
    5.7042   -5.0667    0.0000 C   0  0
    6.3167   -4.0167    0.0000 C   0  0
    6.9250   -5.0792    0.0000 C   0  0
    4.4750   -5.7667    0.0000 C   0  0
    5.7167   -3.6667    0.0000 C   0  0
    7.5375   -4.7417    0.0000 C   0  0
  2  1  1  0
  3  1  2  0
  4  1  1  0
  5  2  2  0
  6  3  1  0
  7  6  2  0
  8  4  2  0
  9  4  1  0
 10  7  1  0
 11  6  1  0
 12  2  1  0
 13 15  1  0
 14  9  1  0
 15 14  1  0
 16 13  1  0
 17 13  1  0
 18 12  1  0
 19 16  1  0
 20 17  1  0
  7  5  1  0
M  END